*SPEF "ieee 1481-1999"
*DESIGN "SARSA_RUIDO_e9_1"
*DATE "09:47:50 Friday September 12, 2025"
*VENDOR "The OpenROAD Project"
*PROGRAM "OpenROAD"
*VERSION "edf00dff99f6c40d67a30c0e22a8191c5d2ed9d6"
*DESIGN_FLOW "NAME_SCOPE LOCAL" "PIN_CAP NONE"
*DIVIDER /
*DELIMITER :
*BUS_DELIMITER []
*T_UNIT 1 NS
*C_UNIT 1 PF
*R_UNIT 1 OHM
*L_UNIT 1 HENRY

*NAME_MAP
*1 A[0]
*2 A[1]
*3 B[0]
*4 B[1]
*5 P[0]
*6 P[1]
*7 P[2]
*8 P[3]
*11 net1
*12 net2
*13 net3
*14 net4
*15 net5
*16 net6
*17 net7
*18 net8
*19 FILLER_0_15
*20 FILLER_0_27
*21 FILLER_0_29
*22 FILLER_0_3
*23 FILLER_0_41
*24 FILLER_0_53
*25 FILLER_0_57
*26 FILLER_0_69
*27 FILLER_1_15
*28 FILLER_1_27
*29 FILLER_1_3
*30 FILLER_1_39
*31 FILLER_1_51
*32 FILLER_1_55
*33 FILLER_1_57
*34 FILLER_1_69
*35 FILLER_2_19
*36 FILLER_2_27
*37 FILLER_2_29
*38 FILLER_2_41
*39 FILLER_2_53
*40 FILLER_2_65
*41 FILLER_2_7
*42 FILLER_2_77
*43 FILLER_3_15
*44 FILLER_3_27
*45 FILLER_3_3
*46 FILLER_3_39
*47 FILLER_3_51
*48 FILLER_3_55
*49 FILLER_3_57
*50 FILLER_3_69
*51 FILLER_4_19
*52 FILLER_4_27
*53 FILLER_4_29
*54 FILLER_4_41
*55 FILLER_4_53
*56 FILLER_4_65
*57 FILLER_4_7
*58 FILLER_4_77
*59 FILLER_5_12
*60 FILLER_5_18
*61 FILLER_5_28
*62 FILLER_5_40
*63 FILLER_5_52
*64 FILLER_5_57
*65 FILLER_5_6
*66 FILLER_5_69
*67 FILLER_6_10
*68 FILLER_6_18
*69 FILLER_6_26
*70 FILLER_6_29
*71 FILLER_6_41
*72 FILLER_6_53
*73 FILLER_6_6
*74 FILLER_6_65
*75 FILLER_7_14
*76 FILLER_7_24
*77 FILLER_7_36
*78 FILLER_7_48
*79 FILLER_7_57
*80 FILLER_7_6
*81 FILLER_7_69
*82 FILLER_8_15
*83 FILLER_8_27
*84 FILLER_8_29
*85 FILLER_8_3
*86 FILLER_8_41
*87 FILLER_8_53
*88 FILLER_8_65
*89 FILLER_8_77
*90 FILLER_9_18
*91 FILLER_9_26
*92 FILLER_9_29
*93 FILLER_9_41
*94 FILLER_9_53
*95 FILLER_9_57
*96 FILLER_9_6
*97 FILLER_9_69
*98 PHY_EDGE_ROW_0_Left_10
*99 PHY_EDGE_ROW_0_Right_0
*100 PHY_EDGE_ROW_1_Left_11
*101 PHY_EDGE_ROW_1_Right_1
*102 PHY_EDGE_ROW_2_Left_12
*103 PHY_EDGE_ROW_2_Right_2
*104 PHY_EDGE_ROW_3_Left_13
*105 PHY_EDGE_ROW_3_Right_3
*106 PHY_EDGE_ROW_4_Left_14
*107 PHY_EDGE_ROW_4_Right_4
*108 PHY_EDGE_ROW_5_Left_15
*109 PHY_EDGE_ROW_5_Right_5
*110 PHY_EDGE_ROW_6_Left_16
*111 PHY_EDGE_ROW_6_Right_6
*112 PHY_EDGE_ROW_7_Left_17
*113 PHY_EDGE_ROW_7_Right_7
*114 PHY_EDGE_ROW_8_Left_18
*115 PHY_EDGE_ROW_8_Right_8
*116 PHY_EDGE_ROW_9_Left_19
*117 PHY_EDGE_ROW_9_Right_9
*118 TAP_TAPCELL_ROW_0_20
*119 TAP_TAPCELL_ROW_0_21
*120 TAP_TAPCELL_ROW_1_22
*121 TAP_TAPCELL_ROW_2_23
*122 TAP_TAPCELL_ROW_3_24
*123 TAP_TAPCELL_ROW_4_25
*124 TAP_TAPCELL_ROW_5_26
*125 TAP_TAPCELL_ROW_6_27
*126 TAP_TAPCELL_ROW_7_28
*127 TAP_TAPCELL_ROW_8_29
*128 TAP_TAPCELL_ROW_9_30
*129 TAP_TAPCELL_ROW_9_31
*130 _0_
*131 _1_
*132 _2_
*133 _3_
*134 input1
*135 input2
*136 input3
*137 input4
*138 output5
*139 output6
*140 output7
*141 output8

*PORTS
A[0] I
A[1] I
B[0] I
B[1] I
P[0] O
P[1] O
P[2] O
P[3] O

*D_NET *1 0.000756306
*CONN
*P A[0] I
*I *134:A I *D sky130_fd_sc_hd__clkbuf_1
*CAP
1 A[0] 0.000333365
2 *134:A 0.000333365
3 *134:A *135:A 0
4 *134:A *137:A 2.79122e-05
5 *134:A *11:8 6.16635e-05
*RES
1 A[0] *134:A 49.5439 
*END

*D_NET *2 0.000567738
*CONN
*P A[1] I
*I *135:A I *D sky130_fd_sc_hd__clkbuf_1
*CAP
1 A[1] 0.000256252
2 *135:A 0.000256252
3 *135:A *137:A 2.12457e-05
4 *135:A *3:17 2.79122e-05
5 *135:A *11:8 6.07611e-06
6 *134:A *135:A 0
*RES
1 A[1] *135:A 47.7832 
*END

*D_NET *3 0.00071699
*CONN
*P B[0] I
*I *136:A I *D sky130_fd_sc_hd__clkbuf_1
*CAP
1 B[0] 0.000330094
2 *136:A 0
3 *3:17 0.000330094
4 *3:17 P[3] 2.88889e-05
5 *135:A *3:17 2.79122e-05
*RES
1 B[0] *3:17 27.8627 
2 *3:17 *136:A 23 
*END

*D_NET *4 0.000618748
*CONN
*P B[1] I
*I *137:A I *D sky130_fd_sc_hd__clkbuf_1
*CAP
1 B[1] 0.000284795
2 *137:A 0.000284795
3 *134:A *137:A 2.79122e-05
4 *135:A *137:A 2.12457e-05
*RES
1 B[1] *137:A 49.8062 
*END

*D_NET *5 0.000747953
*CONN
*P P[0] O
*I *138:X O *D sky130_fd_sc_hd__buf_2
*CAP
1 P[0] 8.23597e-05
2 *138:X 0.000280994
3 *5:14 0.000363353
4 P[0] P[3] 2.12457e-05
5 *5:14 P[3] 0
*RES
1 *138:X *5:14 49.9 
2 *5:14 P[0] 0.382667 
*END

*D_NET *6 0.000521164
*CONN
*P P[1] O
*I *139:X O *D sky130_fd_sc_hd__buf_2
*CAP
1 P[1] 0.000216894
2 *139:X 0.000216894
3 P[1] P[2] 8.73764e-05
*RES
1 *139:X P[1] 47.1648 
*END

*D_NET *7 0.00061075
*CONN
*P P[2] O
*I *140:X O *D sky130_fd_sc_hd__buf_2
*CAP
1 P[2] 0.000261687
2 *140:X 0.000261687
3 P[1] P[2] 8.73764e-05
*RES
1 *140:X P[2] 47.8691 
*END

*D_NET *8 0.000816417
*CONN
*P P[3] O
*I *141:X O *D sky130_fd_sc_hd__buf_2
*CAP
1 P[3] 8.9331e-05
2 *141:X 0.00029381
3 *8:10 0.000383141
4 P[0] P[3] 2.12457e-05
5 *3:17 P[3] 2.88889e-05
6 *5:14 P[3] 0
*RES
1 *141:X *8:10 42.5054 
2 *8:10 P[3] 8.4816 
*END

*D_NET *11 0.00285463
*CONN
*I *131:D I *D sky130_fd_sc_hd__and4_1
*I *132:B I *D sky130_fd_sc_hd__and3b_1
*I *130:B I *D sky130_fd_sc_hd__and2_1
*I *134:X O *D sky130_fd_sc_hd__clkbuf_1
*CAP
1 *131:D 0
2 *132:B 0.000293913
3 *130:B 8.45832e-05
4 *134:X 0.000402734
5 *11:14 0.000378496
6 *11:12 0.000174258
7 *11:8 0.000576992
8 *130:B *132:A_N 5.01986e-05
9 *130:B *141:A 0.00014411
10 *130:B *13:14 7.28526e-05
11 *132:B *132:A_N 0.000222453
12 *132:B *14:12 0
13 *132:B *14:21 5.78356e-05
14 *11:8 *14:12 0
15 *11:12 *12:10 0.000273459
16 *11:12 *12:23 5.50049e-05
17 *134:A *11:8 6.16635e-05
18 *135:A *11:8 6.07611e-06
*RES
1 *134:X *11:8 45.8921 
2 *11:8 *11:12 19.9093 
3 *11:12 *11:14 15 
4 *11:14 *130:B 40.61 
5 *11:14 *132:B 43.2614 
6 *11:12 *131:D 23 
*END

*D_NET *12 0.00195243
*CONN
*I *133:B I *D sky130_fd_sc_hd__and3b_1
*I *131:C I *D sky130_fd_sc_hd__and4_1
*I *135:X O *D sky130_fd_sc_hd__clkbuf_1
*CAP
1 *133:B 0
2 *131:C 0
3 *135:X 0.000273438
4 *12:23 0.000511039
5 *12:10 0.000784477
6 *12:23 *141:A 0
7 *12:23 *14:29 0
8 *12:23 *18:8 5.50106e-05
9 *11:12 *12:10 0.000273459
10 *11:12 *12:23 5.50049e-05
*RES
1 *135:X *12:10 28.075 
2 *12:10 *131:C 23 
3 *12:10 *12:23 38.7 
4 *12:23 *133:B 23 
*END

*D_NET *13 0.000802334
*CONN
*I *130:A I *D sky130_fd_sc_hd__and2_1
*I *131:B I *D sky130_fd_sc_hd__and4_1
*I *136:X O *D sky130_fd_sc_hd__clkbuf_1
*CAP
1 *130:A 0
2 *131:B 0
3 *136:X 0.000253413
4 *13:14 0.000106208
5 *13:8 0.000359621
6 *13:14 *141:A 1.02387e-05
7 *130:B *13:14 7.28526e-05
*RES
1 *136:X *13:8 27.4536 
2 *13:8 *13:14 32.2579 
3 *13:14 *131:B 23 
4 *13:8 *130:A 23 
*END

*D_NET *14 0.00242577
*CONN
*I *132:C I *D sky130_fd_sc_hd__and3b_1
*I *133:C I *D sky130_fd_sc_hd__and3b_1
*I *131:A I *D sky130_fd_sc_hd__and4_1
*I *137:X O *D sky130_fd_sc_hd__clkbuf_1
*CAP
1 *132:C 0
2 *133:C 0
3 *131:A 0
4 *137:X 0.000237192
5 *14:29 0.000481875
6 *14:21 0.000831868
7 *14:12 0.000104382
8 *14:6 0.000691567
9 *14:21 *132:A_N 1.94812e-05
10 *14:29 *132:A_N 0
11 *14:29 *133:A_N 1.56662e-06
12 *14:29 *141:A 0
13 *132:B *14:12 0
14 *132:B *14:21 5.78356e-05
15 *11:8 *14:12 0
16 *12:23 *14:29 0
*RES
1 *137:X *14:6 26.0036 
2 *14:6 *14:12 31.5536 
3 *14:12 *131:A 23 
4 *14:6 *14:21 6.46286 
5 *14:21 *14:29 37.4779 
6 *14:29 *133:C 23 
7 *14:21 *132:C 23 
*END

*D_NET *15 0.00189368
*CONN
*I *133:A_N I *D sky130_fd_sc_hd__and3b_1
*I *138:A I *D sky130_fd_sc_hd__buf_2
*I *130:X O *D sky130_fd_sc_hd__and2_1
*CAP
1 *133:A_N 0.000184034
2 *138:A 0
3 *130:X 0
4 *15:12 0.000677181
5 *15:4 0.000861214
6 *15:12 *141:A 0.000169683
7 *14:29 *133:A_N 1.56662e-06
*RES
1 *130:X *15:4 23 
2 *15:4 *15:12 43.2779 
3 *15:12 *138:A 23 
4 *15:4 *133:A_N 25.5479 
*END

*D_NET *16 0.00419948
*CONN
*I *139:A I *D sky130_fd_sc_hd__buf_2
*I *132:X O *D sky130_fd_sc_hd__and3b_1
*CAP
1 *139:A 0
2 *132:X 0.00197348
3 *16:12 0.000126259
4 *16:6 0.00209974
*RES
1 *132:X *16:6 48.8721 
2 *16:6 *16:12 32.2579 
3 *16:12 *139:A 23 
*END

*D_NET *17 0.00347154
*CONN
*I *140:A I *D sky130_fd_sc_hd__buf_2
*I *133:X O *D sky130_fd_sc_hd__and3b_1
*CAP
1 *140:A 0
2 *133:X 0.00173577
3 *17:10 0.00173577
*RES
1 *133:X *17:10 47.9607 
2 *17:10 *140:A 23 
*END

*D_NET *18 0.00204751
*CONN
*I *132:A_N I *D sky130_fd_sc_hd__and3b_1
*I *141:A I *D sky130_fd_sc_hd__buf_2
*I *131:X O *D sky130_fd_sc_hd__and4_1
*CAP
1 *132:A_N 0.000173063
2 *141:A 0.00047262
3 *131:X 4.24857e-05
4 *18:8 0.000688168
5 *130:B *132:A_N 5.01986e-05
6 *130:B *141:A 0.00014411
7 *132:B *132:A_N 0.000222453
8 *12:23 *141:A 0
9 *12:23 *18:8 5.50106e-05
10 *13:14 *141:A 1.02387e-05
11 *14:21 *132:A_N 1.94812e-05
12 *14:29 *132:A_N 0
13 *14:29 *141:A 0
14 *15:12 *141:A 0.000169683
*RES
1 *131:X *18:8 38.6214 
2 *18:8 *141:A 47.9843 
3 *18:8 *132:A_N 41.9357 
*END
