*SPEF "ieee 1481-1999"
*DESIGN "mult4_SarsaNada_e8_SARSA_RUIDO_e9_SARSA_RUIDO_e9_SARSA_RUIDO_e9"
*DATE "18:51:09 Tuesday September 16, 2025"
*VENDOR "The OpenROAD Project"
*PROGRAM "OpenROAD"
*VERSION "edf00dff99f6c40d67a30c0e22a8191c5d2ed9d6"
*DESIGN_FLOW "NAME_SCOPE LOCAL" "PIN_CAP NONE"
*DIVIDER /
*DELIMITER :
*BUS_DELIMITER []
*T_UNIT 1 NS
*C_UNIT 1 PF
*R_UNIT 1 OHM
*L_UNIT 1 HENRY

*NAME_MAP
*1 A[0]
*2 A[1]
*3 A[2]
*4 A[3]
*5 B[0]
*6 B[1]
*7 B[2]
*8 B[3]
*9 P[0]
*10 P[1]
*11 P[2]
*12 P[3]
*13 P[4]
*14 P[5]
*15 P[6]
*16 P[7]
*19 _000_
*20 _001_
*21 _002_
*22 _003_
*23 _004_
*24 _005_
*25 _006_
*26 _007_
*27 _008_
*28 _009_
*29 _010_
*30 _011_
*31 _012_
*32 _013_
*33 _014_
*34 _015_
*35 _016_
*36 _017_
*37 _018_
*38 _019_
*39 _020_
*40 _021_
*41 _022_
*42 _023_
*43 _024_
*44 _025_
*45 _026_
*46 _027_
*47 _028_
*48 _029_
*49 _030_
*50 _031_
*51 _032_
*52 _033_
*53 _034_
*54 _035_
*55 _036_
*56 _037_
*57 _038_
*58 _039_
*59 _040_
*60 _041_
*61 _042_
*62 _043_
*63 _044_
*64 _045_
*65 _046_
*66 net1
*67 net10
*68 net11
*69 net12
*70 net13
*71 net14
*72 net15
*73 net16
*74 net2
*75 net3
*76 net4
*77 net5
*78 net6
*79 net7
*80 net8
*81 net9
*82 FILLER_0_15
*83 FILLER_0_27
*84 FILLER_0_3
*85 FILLER_0_35
*86 FILLER_0_48
*87 FILLER_0_57
*88 FILLER_0_63
*89 FILLER_0_71
*90 FILLER_0_79
*91 FILLER_1_22
*92 FILLER_1_3
*93 FILLER_1_30
*94 FILLER_1_49
*95 FILLER_1_57
*96 FILLER_1_65
*97 FILLER_1_69
*98 FILLER_2_15
*99 FILLER_2_27
*100 FILLER_2_29
*101 FILLER_2_3
*102 FILLER_2_41
*103 FILLER_2_53
*104 FILLER_2_7
*105 FILLER_2_78
*106 FILLER_3_21
*107 FILLER_3_36
*108 FILLER_3_40
*109 FILLER_3_55
*110 FILLER_3_57
*111 FILLER_3_73
*112 FILLER_4_10
*113 FILLER_4_22
*114 FILLER_4_34
*115 FILLER_4_56
*116 FILLER_4_62
*117 FILLER_4_69
*118 FILLER_5_25
*119 FILLER_5_3
*120 FILLER_5_33
*121 FILLER_5_43
*122 FILLER_5_55
*123 FILLER_5_65
*124 FILLER_5_78
*125 FILLER_6_18
*126 FILLER_6_24
*127 FILLER_6_29
*128 FILLER_6_35
*129 FILLER_6_45
*130 FILLER_6_62
*131 FILLER_6_74
*132 FILLER_7_20
*133 FILLER_7_32
*134 FILLER_7_38
*135 FILLER_7_43
*136 FILLER_7_55
*137 FILLER_7_57
*138 FILLER_7_6
*139 FILLER_7_68
*140 FILLER_7_76
*141 FILLER_8_15
*142 FILLER_8_22
*143 FILLER_8_29
*144 FILLER_8_3
*145 FILLER_8_54
*146 FILLER_8_66
*147 FILLER_8_78
*148 FILLER_9_19
*149 FILLER_9_27
*150 FILLER_9_29
*151 FILLER_9_35
*152 FILLER_9_47
*153 FILLER_9_55
*154 FILLER_9_64
*155 FILLER_9_7
*156 FILLER_9_70
*157 FILLER_9_78
*158 PHY_EDGE_ROW_0_Left_10
*159 PHY_EDGE_ROW_0_Right_0
*160 PHY_EDGE_ROW_1_Left_11
*161 PHY_EDGE_ROW_1_Right_1
*162 PHY_EDGE_ROW_2_Left_12
*163 PHY_EDGE_ROW_2_Right_2
*164 PHY_EDGE_ROW_3_Left_13
*165 PHY_EDGE_ROW_3_Right_3
*166 PHY_EDGE_ROW_4_Left_14
*167 PHY_EDGE_ROW_4_Right_4
*168 PHY_EDGE_ROW_5_Left_15
*169 PHY_EDGE_ROW_5_Right_5
*170 PHY_EDGE_ROW_6_Left_16
*171 PHY_EDGE_ROW_6_Right_6
*172 PHY_EDGE_ROW_7_Left_17
*173 PHY_EDGE_ROW_7_Right_7
*174 PHY_EDGE_ROW_8_Left_18
*175 PHY_EDGE_ROW_8_Right_8
*176 PHY_EDGE_ROW_9_Left_19
*177 PHY_EDGE_ROW_9_Right_9
*178 TAP_TAPCELL_ROW_0_20
*179 TAP_TAPCELL_ROW_0_21
*180 TAP_TAPCELL_ROW_1_22
*181 TAP_TAPCELL_ROW_2_23
*182 TAP_TAPCELL_ROW_3_24
*183 TAP_TAPCELL_ROW_4_25
*184 TAP_TAPCELL_ROW_5_26
*185 TAP_TAPCELL_ROW_6_27
*186 TAP_TAPCELL_ROW_7_28
*187 TAP_TAPCELL_ROW_8_29
*188 TAP_TAPCELL_ROW_9_30
*189 TAP_TAPCELL_ROW_9_31
*190 _047_
*191 _048_
*192 _049_
*193 _050_
*194 _051_
*195 _052_
*196 _053_
*197 _054_
*198 _055_
*199 _056_
*200 _057_
*201 _058_
*202 _059_
*203 _060_
*204 _061_
*205 _062_
*206 _063_
*207 _064_
*208 _065_
*209 _066_
*210 _067_
*211 _068_
*212 _069_
*213 _070_
*214 _071_
*215 _072_
*216 _073_
*217 _074_
*218 _075_
*219 _076_
*220 _077_
*221 _078_
*222 _079_
*223 _080_
*224 _081_
*225 _082_
*226 _083_
*227 _084_
*228 _085_
*229 _086_
*230 _087_
*231 _088_
*232 _089_
*233 _090_
*234 _091_
*235 _092_
*236 _093_
*237 _094_
*238 _095_
*239 _096_
*240 _097_
*241 _098_
*242 _099_
*243 _100_
*244 _101_
*245 input1
*246 input2
*247 input3
*248 input4
*249 input5
*250 input6
*251 input7
*252 input8
*253 output10
*254 output11
*255 output12
*256 output13
*257 output14
*258 output15
*259 output16
*260 output9

*PORTS
A[0] I
A[1] I
A[2] I
A[3] I
B[0] I
B[1] I
B[2] I
B[3] I
P[0] O
P[1] O
P[2] O
P[3] O
P[4] O
P[5] O
P[6] O
P[7] O

*D_NET *1 0.00116778
*CONN
*P A[0] I
*I *245:A I *D sky130_fd_sc_hd__buf_1
*CAP
1 A[0] 0.000532435
2 *245:A 0.000532435
3 *245:A *195:A 7.06229e-05
4 *245:A *246:A 0
5 *245:A *22:10 3.22879e-05
*RES
1 A[0] *245:A 49.5171 
*END

*D_NET *2 0.000941864
*CONN
*P A[1] I
*I *246:A I *D sky130_fd_sc_hd__buf_1
*CAP
1 A[1] 0.000443427
2 *246:A 0.000443427
3 *246:A *195:B 0
4 *246:A *249:A 0
5 *246:A *22:10 5.50106e-05
6 *245:A *246:A 0
*RES
1 A[1] *246:A 47.3214 
*END

*D_NET *3 0.000569769
*CONN
*P A[2] I
*I *247:A I *D sky130_fd_sc_hd__dlymetal6s2s_1
*CAP
1 A[2] 0.000257978
2 *247:A 0.000257978
3 *247:A P[7] 0
4 *247:A *248:A 2.12457e-05
5 *247:A *252:A 0
6 *247:A *7:15 3.25681e-05
7 *247:A *75:10 0
*RES
1 A[2] *247:A 47.7832 
*END

*D_NET *4 0.000618748
*CONN
*P A[3] I
*I *248:A I *D sky130_fd_sc_hd__buf_1
*CAP
1 A[3] 0.000284795
2 *248:A 0.000284795
3 *248:A P[7] 2.79122e-05
4 *247:A *248:A 2.12457e-05
*RES
1 A[3] *248:A 49.8062 
*END

*D_NET *5 0.00121616
*CONN
*P B[0] I
*I *249:A I *D sky130_fd_sc_hd__buf_1
*CAP
1 B[0] 0.000517495
2 *249:A 0.000517495
3 *249:A *190:B 9.72057e-06
4 *249:A *6:13 0
5 *249:A *22:10 4.6318e-06
6 *249:A *66:37 9.65021e-05
7 *249:A *77:8 3.33042e-05
8 *249:A *77:16 3.70094e-05
9 *246:A *249:A 0
*RES
1 B[0] *249:A 48.6471 
*END

*D_NET *6 0.00134914
*CONN
*P B[1] I
*I *250:A I *D sky130_fd_sc_hd__buf_1
*CAP
1 B[1] 0.000674568
2 *250:A 0
3 *6:13 0.000674568
4 *6:13 *200:A 0
5 *249:A *6:13 0
*RES
1 B[1] *6:13 43.7543 
2 *6:13 *250:A 38 
*END

*D_NET *7 0.00105865
*CONN
*P B[2] I
*I *251:A I *D sky130_fd_sc_hd__buf_1
*CAP
1 B[2] 0.000426094
2 *251:A 0
3 *7:15 0.000426094
4 *7:15 *252:A 3.96499e-05
5 *7:15 *27:6 1.57571e-05
6 *7:15 *75:12 0
7 *7:15 *75:107 4.07999e-05
8 *7:15 *79:6 6.17437e-06
9 *7:15 *79:14 7.15126e-05
10 *247:A *7:15 3.25681e-05
*RES
1 B[2] *7:15 30.4646 
2 *7:15 *251:A 23 
*END

*D_NET *8 0.000673802
*CONN
*P B[3] I
*I *252:A I *D sky130_fd_sc_hd__clkbuf_2
*CAP
1 B[3] 0.000288723
2 *252:A 0.000288723
3 *252:A *80:14 5.67058e-05
4 *247:A *252:A 0
5 *7:15 *252:A 3.96499e-05
*RES
1 B[3] *252:A 49.5501 
*END

*D_NET *9 0.000697237
*CONN
*P P[0] O
*I *260:X O *D sky130_fd_sc_hd__buf_2
*CAP
1 P[0] 0.000276292
2 *260:X 0.000276292
3 P[0] P[1] 7.91783e-05
4 P[0] *81:21 6.54744e-05
*RES
1 *260:X P[0] 48.5734 
*END

*D_NET *10 0.000777107
*CONN
*P P[1] O
*I *253:X O *D sky130_fd_sc_hd__buf_2
*CAP
1 P[1] 0.00033766
2 *253:X 0.00033766
3 P[1] *67:8 1.27424e-05
4 P[1] *81:10 9.86551e-06
5 P[0] P[1] 7.91783e-05
*RES
1 *253:X P[1] 47.5083 
*END

*D_NET *11 0.00108977
*CONN
*P P[2] O
*I *254:X O *D sky130_fd_sc_hd__buf_2
*CAP
1 P[2] 0.000473903
2 *254:X 0.000473903
3 P[2] *81:6 0.00014196
*RES
1 *254:X P[2] 47.57 
*END

*D_NET *12 0.000530335
*CONN
*P P[3] O
*I *255:X O *D sky130_fd_sc_hd__buf_2
*CAP
1 P[3] 0.000219207
2 *255:X 0.000219207
3 P[3] P[4] 7.91783e-05
4 P[3] *69:10 1.27424e-05
*RES
1 *255:X P[3] 47.1648 
*END

*D_NET *13 0.000516814
*CONN
*P P[4] O
*I *256:X O *D sky130_fd_sc_hd__buf_2
*CAP
1 P[4] 0.000218818
2 *256:X 0.000218818
3 P[3] P[4] 7.91783e-05
*RES
1 *256:X P[4] 47.1648 
*END

*D_NET *14 0.00100219
*CONN
*P P[5] O
*I *257:X O *D sky130_fd_sc_hd__buf_2
*CAP
1 P[5] 0.000501094
2 *257:X 0.000501094
*RES
1 *257:X P[5] 48.9786 
*END

*D_NET *15 0.00107673
*CONN
*P P[6] O
*I *258:X O *D sky130_fd_sc_hd__buf_2
*CAP
1 P[6] 0.000538367
2 *258:X 0.000538367
*RES
1 *258:X P[6] 49.1236 
*END

*D_NET *16 0.000714796
*CONN
*P P[7] O
*I *259:X O *D sky130_fd_sc_hd__buf_2
*CAP
1 P[7] 0.000321772
2 *259:X 0.000321772
3 P[7] *73:10 4.334e-05
4 *247:A P[7] 0
5 *248:A P[7] 2.79122e-05
*RES
1 *259:X P[7] 48.5734 
*END

*D_NET *19 0.00211493
*CONN
*I *196:A3 I *D sky130_fd_sc_hd__a31o_1
*I *198:C I *D sky130_fd_sc_hd__and4_1
*I *190:Y O *D sky130_fd_sc_hd__nand2_1
*CAP
1 *196:A3 0.000141346
2 *198:C 3.07344e-05
3 *190:Y 0.00038735
4 *19:12 0.000172081
5 *19:10 0.00038735
6 *196:A3 *197:A 5.47983e-06
7 *196:A3 *202:A 3.76422e-05
8 *196:A3 *22:23 5.3304e-05
9 *196:A3 *74:27 0.000167036
10 *198:C *22:14 5.79559e-05
11 *198:C *22:23 8.65377e-05
12 *198:C *74:27 0.000105009
13 *19:10 *196:B1 6.16439e-05
14 *19:10 *66:37 0.000364173
15 *19:10 *77:16 0
16 *19:10 *78:23 2.81216e-05
17 *19:10 *78:29 2.91636e-05
*RES
1 *190:Y *19:10 44.5664 
2 *19:10 *19:12 15 
3 *19:12 *198:C 24.5743 
4 *19:12 *196:A3 26.0243 
*END

*D_NET *20 0.00109926
*CONN
*I *204:A I *D sky130_fd_sc_hd__or4b_2
*I *220:A1 I *D sky130_fd_sc_hd__a21o_1
*I *193:X O *D sky130_fd_sc_hd__and2_1
*CAP
1 *204:A 0
2 *220:A1 3.14802e-05
3 *193:X 0.000132104
4 *20:27 0.000220483
5 *20:8 0.000384068
6 *220:A1 *194:A 5.67058e-05
7 *20:8 *194:A 1.03955e-05
8 *20:8 *23:23 2.64616e-05
9 *20:27 *194:A 4.5051e-05
10 *20:27 *204:C 5.41385e-05
11 *20:27 *205:B2 0.000138371
12 *20:27 *28:8 0
*RES
1 *193:X *20:8 25.0714 
2 *20:8 *220:A1 24.1186 
3 *20:8 *20:27 34.4536 
4 *20:27 *204:A 23 
*END

*D_NET *21 0.00240944
*CONN
*I *205:B2 I *D sky130_fd_sc_hd__a2bb2o_1
*I *200:A I *D sky130_fd_sc_hd__xnor2_1
*I *194:Y O *D sky130_fd_sc_hd__nand2_1
*CAP
1 *205:B2 0.000320352
2 *200:A 0.000524962
3 *194:Y 0
4 *21:6 0.000845314
5 *200:A *25:16 0
6 *200:A *26:10 0.000138708
7 *200:A *66:56 3.71251e-05
8 *200:A *81:6 0.00010018
9 *205:B2 *204:C 4.21352e-05
10 *205:B2 *204:D_N 5.67058e-05
11 *205:B2 *25:16 0
12 *205:B2 *28:8 0
13 *205:B2 *29:6 2.18506e-05
14 *205:B2 *30:10 0.000183733
15 *205:B2 *41:8 0
16 *205:B2 *46:10 0
17 *6:13 *200:A 0
18 *20:27 *205:B2 0.000138371
*RES
1 *194:Y *21:6 38 
2 *21:6 *200:A 46.99 
3 *21:6 *205:B2 44.7943 
*END

*D_NET *22 0.00516886
*CONN
*I *204:B I *D sky130_fd_sc_hd__or4b_2
*I *205:A1_N I *D sky130_fd_sc_hd__a2bb2o_1
*I *196:B1 I *D sky130_fd_sc_hd__a31o_1
*I *198:D I *D sky130_fd_sc_hd__and4_1
*I *195:X O *D sky130_fd_sc_hd__and2_1
*CAP
1 *204:B 0.000357859
2 *205:A1_N 0
3 *196:B1 6.61016e-05
4 *198:D 0
5 *195:X 0.000251918
6 *22:44 0.000797973
7 *22:23 0.000612969
8 *22:14 0.000369309
9 *22:10 0.000514475
10 *196:B1 *198:A 5.50049e-05
11 *196:B1 *74:27 5.3304e-05
12 *196:B1 *77:16 0
13 *196:B1 *78:29 8.4047e-05
14 *204:B *204:C 0.000272383
15 *204:B *205:A2_N 3.36312e-06
16 *204:B *29:6 9.43689e-05
17 *204:B *30:10 2.472e-05
18 *22:10 *195:A 5.67058e-05
19 *22:10 *195:B 0
20 *22:10 *66:6 8.6949e-05
21 *22:10 *66:21 0
22 *22:10 *66:28 0.000215671
23 *22:10 *74:8 8.51329e-05
24 *22:10 *77:16 0.000196668
25 *22:14 *74:19 0.00014852
26 *22:14 *74:27 1.10658e-05
27 *22:44 *205:A2_N 7.4469e-06
28 *22:44 *28:8 0
29 *22:44 *30:10 5.60358e-05
30 *22:44 *77:16 0
31 *22:44 *78:29 0.000395494
32 *196:A3 *22:23 5.3304e-05
33 *198:C *22:14 5.79559e-05
34 *198:C *22:23 8.65377e-05
35 *245:A *22:10 3.22879e-05
36 *246:A *22:10 5.50106e-05
37 *249:A *22:10 4.6318e-06
38 *19:10 *196:B1 6.16439e-05
*RES
1 *195:X *22:10 45.6229 
2 *22:10 *22:14 18.9564 
3 *22:14 *198:D 23 
4 *22:14 *22:23 16.5743 
5 *22:23 *196:B1 39.8229 
6 *22:23 *22:44 9.54929 
7 *22:44 *205:A1_N 38 
8 *22:44 *204:B 44.1107 
*END

*D_NET *23 0.00151542
*CONN
*I *220:A2 I *D sky130_fd_sc_hd__a21o_1
*I *197:A I *D sky130_fd_sc_hd__inv_2
*I *196:X O *D sky130_fd_sc_hd__a31o_1
*CAP
1 *220:A2 0
2 *197:A 0.000145203
3 *196:X 0
4 *23:23 0.000260182
5 *23:4 0.000405385
6 *197:A *199:A 0
7 *197:A *199:B 2.34838e-05
8 *197:A *202:A 3.22467e-05
9 *197:A *209:B 9.5877e-05
10 *197:A *25:10 4.94073e-05
11 *23:23 *194:A 5.3304e-05
12 *23:23 *28:8 0.000364361
13 *23:23 *38:10 1.63467e-05
14 *23:23 *75:58 3.76854e-05
15 *196:A3 *197:A 5.47983e-06
16 *20:8 *23:23 2.64616e-05
*RES
1 *196:X *23:4 23 
2 *23:4 *197:A 26.5214 
3 *23:4 *23:23 35.6964 
4 *23:23 *220:A2 23 
*END

*D_NET *24 0.000390321
*CONN
*I *199:A I *D sky130_fd_sc_hd__nor2_1
*I *197:Y O *D sky130_fd_sc_hd__inv_2
*CAP
1 *199:A 8.13814e-05
2 *197:Y 8.13814e-05
3 *199:A *199:B 4.30318e-05
4 *199:A *209:B 0.000184527
5 *197:A *199:A 0
*RES
1 *197:Y *199:A 48.5479 
*END

*D_NET *25 0.0023743
*CONN
*I *199:B I *D sky130_fd_sc_hd__nor2_1
*I *220:B1 I *D sky130_fd_sc_hd__a21o_1
*I *198:X O *D sky130_fd_sc_hd__and4_1
*CAP
1 *199:B 0.000123471
2 *220:B1 0
3 *198:X 0.000368854
4 *25:16 0.00036109
5 *25:10 0.000853415
6 *199:B *202:A 0
7 *199:B *209:B 9.24795e-06
8 *199:B *26:10 5.3304e-05
9 *25:10 *198:A 0.000137651
10 *25:10 *202:A 0.000109154
11 *25:10 *74:27 8.48502e-06
12 *25:16 *202:B 6.16439e-05
13 *25:16 *28:8 8.80097e-05
14 *25:16 *80:59 8.4047e-05
15 *197:A *199:B 2.34838e-05
16 *197:A *25:10 4.94073e-05
17 *199:A *199:B 4.30318e-05
18 *200:A *25:16 0
19 *205:B2 *25:16 0
*RES
1 *198:X *25:10 29.0279 
2 *25:10 *25:16 36.4836 
3 *25:16 *220:B1 23 
4 *25:10 *199:B 25.9 
*END

*D_NET *26 0.000488366
*CONN
*I *200:B I *D sky130_fd_sc_hd__xnor2_1
*I *199:Y O *D sky130_fd_sc_hd__nor2_1
*CAP
1 *200:B 0
2 *199:Y 0.000148177
3 *26:10 0.000148177
4 *199:B *26:10 5.3304e-05
5 *200:A *26:10 0.000138708
*RES
1 *199:Y *26:10 40.5271 
2 *26:10 *200:B 38 
*END

*D_NET *27 0.00413108
*CONN
*I *206:A_N I *D sky130_fd_sc_hd__nand3b_2
*I *207:B1_N I *D sky130_fd_sc_hd__a21bo_1
*I *241:A1 I *D sky130_fd_sc_hd__a21oi_1
*I *235:C I *D sky130_fd_sc_hd__and3_1
*I *201:Y O *D sky130_fd_sc_hd__nand2_1
*CAP
1 *206:A_N 0
2 *207:B1_N 0
3 *241:A1 0.000231919
4 *235:C 0.000113378
5 *201:Y 0.000359712
6 *27:47 0.000155981
7 *27:34 0.00074994
8 *27:10 0.000402799
9 *27:6 0.00101117
10 *235:C *80:102 8.34235e-05
11 *241:A1 *48:8 0
12 *241:A1 *59:8 0
13 *241:A1 *60:10 0
14 *241:A1 *60:27 4.99867e-05
15 *241:A1 *61:12 1.19796e-05
16 *241:A1 *76:14 8.4047e-05
17 *241:A1 *76:37 0
18 *241:A1 *80:102 2.49836e-05
19 *27:6 *225:A_N 1.02557e-05
20 *27:6 *225:C 5.50049e-05
21 *27:6 *228:A 7.53384e-06
22 *27:6 *75:107 0.000311554
23 *27:10 *76:37 0
24 *27:10 *80:102 4.03263e-05
25 *27:34 *228:A 7.42621e-05
26 *27:34 *238:A_N 3.24862e-05
27 *27:34 *53:6 0.000143059
28 *27:47 *206:C 0.000139865
29 *27:47 *238:A_N 2.16575e-05
30 *7:15 *27:6 1.57571e-05
*RES
1 *201:Y *27:6 28.3857 
2 *27:6 *27:10 16.0254 
3 *27:10 *235:C 39.6468 
4 *27:10 *241:A1 42.1946 
5 *27:6 *27:34 8.72071 
6 *27:34 *207:B1_N 23 
7 *27:34 *27:47 33.0036 
8 *27:47 *206:A_N 23 
*END

*D_NET *28 0.00233659
*CONN
*I *204:C I *D sky130_fd_sc_hd__or4b_2
*I *205:A2_N I *D sky130_fd_sc_hd__a2bb2o_1
*I *202:Y O *D sky130_fd_sc_hd__nand2_1
*CAP
1 *204:C 0.000209396
2 *205:A2_N 7.12611e-05
3 *202:Y 0.000333679
4 *28:8 0.000614336
5 *204:C *204:D_N 2.4754e-05
6 *204:C *29:6 5.50106e-05
7 *205:A2_N *29:6 0.000100061
8 *205:A2_N *30:10 5.53979e-05
9 *28:8 *202:B 6.07611e-06
10 *28:8 *80:59 3.47776e-05
11 *204:B *204:C 0.000272383
12 *204:B *205:A2_N 3.36312e-06
13 *205:B2 *204:C 4.21352e-05
14 *205:B2 *28:8 0
15 *20:27 *204:C 5.41385e-05
16 *20:27 *28:8 0
17 *22:44 *205:A2_N 7.4469e-06
18 *22:44 *28:8 0
19 *23:23 *28:8 0.000364361
20 *25:16 *28:8 8.80097e-05
*RES
1 *202:Y *28:8 45.3639 
2 *28:8 *205:A2_N 40.0404 
3 *28:8 *204:C 43.8311 
*END

*D_NET *29 0.00111468
*CONN
*I *205:B1 I *D sky130_fd_sc_hd__a2bb2o_1
*I *204:D_N I *D sky130_fd_sc_hd__or4b_2
*I *203:X O *D sky130_fd_sc_hd__and2_1
*CAP
1 *205:B1 0
2 *204:D_N 3.14802e-05
3 *203:X 0.000287851
4 *29:6 0.000319331
5 *29:6 *30:10 6.45485e-05
6 *29:6 *31:10 5.25435e-05
7 *29:6 *78:39 6.17437e-06
8 *204:B *29:6 9.43689e-05
9 *204:C *204:D_N 2.4754e-05
10 *204:C *29:6 5.50106e-05
11 *205:A2_N *29:6 0.000100061
12 *205:B2 *204:D_N 5.67058e-05
13 *205:B2 *29:6 2.18506e-05
*RES
1 *203:X *29:6 29.815 
2 *29:6 *204:D_N 24.1186 
3 *29:6 *205:B1 23 
*END

*D_NET *30 0.00431259
*CONN
*I *229:A I *D sky130_fd_sc_hd__and3_1
*I *231:A1 I *D sky130_fd_sc_hd__a21oi_1
*I *230:A I *D sky130_fd_sc_hd__nand3_1
*I *206:B I *D sky130_fd_sc_hd__nand3b_2
*I *207:A1 I *D sky130_fd_sc_hd__a21bo_1
*I *204:X O *D sky130_fd_sc_hd__or4b_2
*CAP
1 *229:A 0
2 *231:A1 0.000111845
3 *230:A 0
4 *206:B 4.66792e-05
5 *207:A1 0
6 *204:X 0.000538297
7 *30:51 0.00028893
8 *30:38 0.000421774
9 *30:19 0.000407347
10 *30:10 0.000654276
11 *231:A1 *229:C 0.000397554
12 *231:A1 *232:B 1.56446e-05
13 *231:A1 *239:A2 5.56356e-05
14 *231:A1 *239:C1 5.3304e-05
15 *231:A1 *42:28 5.79559e-05
16 *231:A1 *56:6 0.000110077
17 *30:10 *31:10 0.000138727
18 *30:10 *76:60 0
19 *30:19 *206:C 0.000197479
20 *30:19 *31:10 2.55642e-05
21 *30:19 *32:10 0
22 *30:38 *230:C 1.32314e-05
23 *30:38 *32:10 0
24 *30:38 *32:16 1.10658e-05
25 *30:38 *32:24 4.94033e-05
26 *30:51 *229:B 4.49946e-05
27 *30:51 *32:10 2.71291e-05
28 *30:51 *32:16 7.40718e-05
29 *30:51 *42:28 0.000187166
30 *204:B *30:10 2.472e-05
31 *205:A2_N *30:10 5.53979e-05
32 *205:B2 *30:10 0.000183733
33 *22:44 *30:10 5.60358e-05
34 *29:6 *30:10 6.45485e-05
*RES
1 *204:X *30:10 47.0521 
2 *30:10 *207:A1 38 
3 *30:10 *30:19 2.96214 
4 *30:19 *206:B 38.6214 
5 *30:19 *30:38 20.1786 
6 *30:38 *230:A 23 
7 *30:38 *30:51 34.3086 
8 *30:51 *231:A1 27.4329 
9 *30:51 *229:A 23 
*END

*D_NET *31 0.00124477
*CONN
*I *206:C I *D sky130_fd_sc_hd__nand3b_2
*I *207:A2 I *D sky130_fd_sc_hd__a21bo_1
*I *205:X O *D sky130_fd_sc_hd__a2bb2o_1
*CAP
1 *206:C 6.6933e-05
2 *207:A2 6.55588e-05
3 *205:X 0.000187989
4 *31:10 0.000320481
5 *207:A2 *238:A_N 4.96303e-05
6 *27:47 *206:C 0.000139865
7 *29:6 *31:10 5.25435e-05
8 *30:10 *31:10 0.000138727
9 *30:19 *206:C 0.000197479
10 *30:19 *31:10 2.55642e-05
*RES
1 *205:X *31:10 41.3557 
2 *31:10 *207:A2 39.0979 
3 *31:10 *206:C 40.61 
*END

*D_NET *32 0.00309854
*CONN
*I *216:A I *D sky130_fd_sc_hd__and3_1
*I *217:A1 I *D sky130_fd_sc_hd__a21o_1
*I *229:B I *D sky130_fd_sc_hd__and3_1
*I *230:B I *D sky130_fd_sc_hd__nand3_1
*I *231:A2 I *D sky130_fd_sc_hd__a21oi_1
*I *206:Y O *D sky130_fd_sc_hd__nand3b_2
*CAP
1 *216:A 0.00010052
2 *217:A1 0
3 *229:B 0.000185443
4 *230:B 0
5 *231:A2 0
6 *206:Y 0.000128323
7 *32:45 0.000226854
8 *32:24 0.000181507
9 *32:16 0.000442339
10 *32:10 0.000664352
11 *32:6 0.000472735
12 *216:A *216:B 2.65879e-05
13 *216:A *217:B1 0.000143655
14 *229:B *42:28 2.72445e-06
15 *229:B *58:8 0
16 *32:10 *216:B 3.07161e-05
17 *32:10 *33:10 1.19796e-05
18 *32:10 *58:8 0
19 *32:16 *42:28 0.000137651
20 *32:24 *230:C 5.67058e-05
21 *32:24 *42:28 0
22 *32:24 *55:8 6.58373e-05
23 *32:45 *216:B 1.39431e-05
24 *30:19 *32:10 0
25 *30:38 *32:10 0
26 *30:38 *32:16 1.10658e-05
27 *30:38 *32:24 4.94033e-05
28 *30:51 *229:B 4.49946e-05
29 *30:51 *32:10 2.71291e-05
30 *30:51 *32:16 7.40718e-05
*RES
1 *206:Y *32:6 25.0507 
2 *32:6 *32:10 19.3707 
3 *32:10 *32:16 18.9771 
4 *32:16 *32:24 33.8321 
5 *32:24 *231:A2 23 
6 *32:16 *230:B 23 
7 *32:10 *229:B 40.9621 
8 *32:6 *32:45 2.05071 
9 *32:45 *217:A1 23 
10 *32:45 *216:A 25.5271 
*END

*D_NET *33 0.0017597
*CONN
*I *216:B I *D sky130_fd_sc_hd__and3_1
*I *217:A2 I *D sky130_fd_sc_hd__a21o_1
*I *207:X O *D sky130_fd_sc_hd__a21bo_1
*CAP
1 *216:B 0.000287315
2 *217:A2 0
3 *207:X 0.000404091
4 *33:10 0.000691406
5 *216:B *217:B1 3.53115e-05
6 *216:B *41:8 0
7 *216:B *43:10 0.000143655
8 *33:10 *238:A_N 0.000114693
9 *33:10 *41:8 0
10 *216:A *216:B 2.65879e-05
11 *32:10 *216:B 3.07161e-05
12 *32:10 *33:10 1.19796e-05
13 *32:45 *216:B 1.39431e-05
*RES
1 *207:X *33:10 44.3386 
2 *33:10 *217:A2 38 
3 *33:10 *216:B 43.1579 
*END

*D_NET *34 0.00524956
*CONN
*I *236:A1 I *D sky130_fd_sc_hd__a21oi_1
*I *210:A I *D sky130_fd_sc_hd__or3b_1
*I *213:A1 I *D sky130_fd_sc_hd__o21bai_1
*I *226:A I *D sky130_fd_sc_hd__xnor2_1
*I *208:X O *D sky130_fd_sc_hd__and4_1
*CAP
1 *236:A1 0.00017787
2 *210:A 0
3 *213:A1 0.000158798
4 *226:A 0
5 *208:X 0.000381062
6 *34:21 0.00125904
7 *34:14 0.00116831
8 *34:10 0.000627
9 *213:A1 *213:A2 0.000109553
10 *236:A1 *37:25 4.41619e-05
11 *236:A1 *60:10 4.68476e-05
12 *236:A1 *80:40 0
13 *34:10 *208:C 0
14 *34:10 *80:40 0
15 *34:21 *38:18 0.000367367
16 *34:21 *51:10 0.000171888
17 *34:21 *80:59 0.000737657
*RES
1 *208:X *34:10 43.3857 
2 *34:10 *34:14 16.0979 
3 *34:14 *226:A 23 
4 *34:14 *34:21 27.3014 
5 *34:21 *213:A1 26.5214 
6 *34:21 *210:A 23 
7 *34:10 *236:A1 41.3143 
*END

*D_NET *35 0.000914393
*CONN
*I *210:B I *D sky130_fd_sc_hd__or3b_1
*I *213:A2 I *D sky130_fd_sc_hd__o21bai_1
*I *209:Y O *D sky130_fd_sc_hd__nand2_1
*CAP
1 *210:B 3.72534e-05
2 *213:A2 0.000121607
3 *209:Y 0.000151636
4 *35:8 0.000310496
5 *210:B *36:8 4.21594e-06
6 *210:B *39:8 0
7 *210:B *81:36 1.19796e-05
8 *213:A2 *81:36 0.000155683
9 *35:8 *81:21 0
10 *35:8 *81:36 1.19692e-05
11 *213:A1 *213:A2 0.000109553
*RES
1 *209:Y *35:8 40.2579 
2 *35:8 *213:A2 41.5007 
3 *35:8 *210:B 38.8493 
*END

*D_NET *36 0.00128755
*CONN
*I *219:A1 I *D sky130_fd_sc_hd__a21o_1
*I *214:A I *D sky130_fd_sc_hd__nand3_1
*I *215:B1_N I *D sky130_fd_sc_hd__a21bo_1
*I *210:X O *D sky130_fd_sc_hd__or3b_1
*CAP
1 *219:A1 0.000185711
2 *214:A 2.36207e-05
3 *215:B1_N 0
4 *210:X 8.75074e-05
5 *36:12 5.41057e-05
6 *36:8 0.000303703
7 *214:A *214:B 4.50058e-05
8 *214:A *215:A2 5.67058e-05
9 *219:A1 *219:A2 0
10 *219:A1 *219:B1 0.000163483
11 *219:A1 *39:8 0
12 *219:A1 *40:8 0
13 *36:8 *219:B1 1.14452e-05
14 *36:8 *38:18 0.000138727
15 *36:8 *39:8 0
16 *36:12 *214:B 0.00014196
17 *36:12 *215:A2 7.13587e-05
18 *210:B *36:8 4.21594e-06
*RES
1 *210:X *36:8 39.9057 
2 *36:8 *36:12 16.5743 
3 *36:12 *215:B1_N 23 
4 *36:12 *214:A 24.1186 
5 *36:8 *219:A1 41.3557 
*END

*D_NET *37 0.00201993
*CONN
*I *212:A_N I *D sky130_fd_sc_hd__and3b_1
*I *226:B I *D sky130_fd_sc_hd__xnor2_1
*I *236:A2 I *D sky130_fd_sc_hd__a21oi_1
*I *211:X O *D sky130_fd_sc_hd__and4_1
*CAP
1 *212:A_N 0.000141253
2 *226:B 0
3 *236:A2 0.000163147
4 *211:X 0
5 *37:25 9.86113e-05
6 *37:10 0.000557853
7 *37:4 0.000437347
8 *212:A_N *75:28 3.53115e-05
9 *212:A_N *75:41 0.000169985
10 *236:A2 *236:B1 2.64616e-05
11 *236:A2 *80:25 4.56219e-05
12 *37:10 *227:B_N 5.12254e-05
13 *37:10 *236:B1 6.17437e-06
14 *37:10 *75:28 6.61008e-05
15 *37:10 *80:25 6.74374e-05
16 *37:10 *80:34 7.22251e-05
17 *37:25 *60:10 3.70094e-05
18 *37:25 *80:40 0
19 *236:A1 *37:25 4.41619e-05
*RES
1 *211:X *37:4 23 
2 *37:4 *37:10 6.02786 
3 *37:10 *236:A2 25.9 
4 *37:10 *37:25 32.2579 
5 *37:25 *226:B 23 
6 *37:4 *212:A_N 26.48 
*END

*D_NET *38 0.00431039
*CONN
*I *219:B1 I *D sky130_fd_sc_hd__a21o_1
*I *215:A1 I *D sky130_fd_sc_hd__a21bo_1
*I *214:B I *D sky130_fd_sc_hd__nand3_1
*I *212:X O *D sky130_fd_sc_hd__and3b_1
*CAP
1 *219:B1 0.000144013
2 *215:A1 0
3 *214:B 0.000194049
4 *212:X 0.000306727
5 *38:20 0.000194049
6 *38:18 0.000979591
7 *38:10 0.00114231
8 *214:B *215:A2 3.57597e-05
9 *219:B1 *40:8 0
10 *219:B1 *41:8 6.88552e-05
11 *38:10 *75:52 0.000313017
12 *38:10 *75:58 1.00084e-05
13 *38:10 *78:29 3.76761e-05
14 *214:A *214:B 4.50058e-05
15 *219:A1 *219:B1 0.000163483
16 *23:23 *38:10 1.63467e-05
17 *34:21 *38:18 0.000367367
18 *36:8 *219:B1 1.14452e-05
19 *36:8 *38:18 0.000138727
20 *36:12 *214:B 0.00014196
*RES
1 *212:X *38:10 42.6814 
2 *38:10 *38:18 42.5321 
3 *38:18 *38:20 15 
4 *38:20 *214:B 27.35 
5 *38:20 *215:A1 23 
6 *38:18 *219:B1 41.5836 
*END

*D_NET *39 0.00179449
*CONN
*I *219:A2 I *D sky130_fd_sc_hd__a21o_1
*I *215:A2 I *D sky130_fd_sc_hd__a21bo_1
*I *214:C I *D sky130_fd_sc_hd__nand3_1
*I *213:Y O *D sky130_fd_sc_hd__o21bai_1
*CAP
1 *219:A2 0.000331525
2 *215:A2 0.000281033
3 *214:C 0
4 *213:Y 0.000138013
5 *39:12 0.000345794
6 *39:8 0.000534299
7 *219:A2 *40:8 0
8 *210:B *39:8 0
9 *214:A *215:A2 5.67058e-05
10 *214:B *215:A2 3.57597e-05
11 *219:A1 *219:A2 0
12 *219:A1 *39:8 0
13 *36:8 *39:8 0
14 *36:12 *215:A2 7.13587e-05
*RES
1 *213:Y *39:8 40.2579 
2 *39:8 *39:12 16.0979 
3 *39:12 *214:C 23 
4 *39:12 *215:A2 28.4271 
5 *39:8 *219:A2 43.6136 
*END

*D_NET *40 0.00168394
*CONN
*I *243:A1 I *D sky130_fd_sc_hd__a21oi_1
*I *221:A I *D sky130_fd_sc_hd__and3_1
*I *238:D I *D sky130_fd_sc_hd__and4b_1
*I *214:Y O *D sky130_fd_sc_hd__nand3_1
*CAP
1 *243:A1 2.90391e-05
2 *221:A 0
3 *238:D 0.000169437
4 *214:Y 0.000266865
5 *40:25 0.000120267
6 *40:8 0.00052753
7 *238:D *238:C 2.26481e-05
8 *238:D *243:A2 1.32314e-05
9 *238:D *41:8 0
10 *238:D *45:21 0.000120867
11 *238:D *46:23 0.000260564
12 *243:A1 *243:A2 5.50106e-05
13 *243:A1 *243:B1 9.84851e-05
14 *40:8 *41:8 0
15 *40:8 *45:8 0
16 *40:25 *41:8 0
17 *219:A1 *40:8 0
18 *219:A2 *40:8 0
19 *219:B1 *40:8 0
*RES
1 *214:Y *40:8 42.5468 
2 *40:8 *238:D 42.293 
3 *40:8 *40:25 16.0254 
4 *40:25 *221:A 23 
5 *40:25 *243:A1 24.0979 
*END

*D_NET *41 0.00181336
*CONN
*I *216:C I *D sky130_fd_sc_hd__and3_1
*I *217:B1 I *D sky130_fd_sc_hd__a21o_1
*I *215:X O *D sky130_fd_sc_hd__a21bo_1
*CAP
1 *216:C 3.24741e-05
2 *217:B1 5.36471e-05
3 *215:X 0.00036612
4 *41:12 0.000135415
5 *41:8 0.000415413
6 *217:B1 *43:10 8.1796e-05
7 *41:8 *45:8 4.08537e-05
8 *41:8 *46:10 0.00035793
9 *41:8 *62:8 4.58924e-05
10 *41:12 *42:10 3.7122e-06
11 *41:12 *43:10 3.22879e-05
12 *205:B2 *41:8 0
13 *216:A *217:B1 0.000143655
14 *216:B *217:B1 3.53115e-05
15 *216:B *41:8 0
16 *219:B1 *41:8 6.88552e-05
17 *238:D *41:8 0
18 *33:10 *41:8 0
19 *40:8 *41:8 0
20 *40:25 *41:8 0
*RES
1 *215:X *41:8 46.2443 
2 *41:8 *41:12 16.0979 
3 *41:12 *217:B1 25.5271 
4 *41:12 *216:C 23.725 
*END

*D_NET *42 0.00244495
*CONN
*I *218:A_N I *D sky130_fd_sc_hd__and2b_1
*I *233:B1 I *D sky130_fd_sc_hd__a21oi_1
*I *239:A1 I *D sky130_fd_sc_hd__a211o_1
*I *216:X O *D sky130_fd_sc_hd__and3_1
*CAP
1 *218:A_N 0
2 *233:B1 0
3 *239:A1 0
4 *216:X 0.000156076
5 *42:28 0.000599058
6 *42:14 0.000717367
7 *42:12 0.000118309
8 *42:10 0.000156076
9 *42:10 *233:A1 3.3123e-05
10 *42:10 *43:10 5.56203e-05
11 *42:10 *58:8 0
12 *42:10 *62:8 9.04083e-05
13 *42:14 *218:B 1.41077e-05
14 *42:14 *233:A2 5.50049e-05
15 *42:28 *55:8 4.96811e-06
16 *42:28 *56:6 5.56279e-05
17 *229:B *42:28 2.72445e-06
18 *231:A1 *42:28 5.79559e-05
19 *30:51 *42:28 0.000187166
20 *32:16 *42:28 0.000137651
21 *32:24 *42:28 0
22 *41:12 *42:10 3.7122e-06
*RES
1 *216:X *42:10 41.2314 
2 *42:10 *42:12 15 
3 *42:12 *42:14 2.05071 
4 *42:14 *42:28 40.4607 
5 *42:28 *239:A1 23 
6 *42:14 *233:B1 23 
7 *42:12 *218:A_N 23 
*END

*D_NET *43 0.00110158
*CONN
*I *233:A1 I *D sky130_fd_sc_hd__a21oi_1
*I *218:B I *D sky130_fd_sc_hd__and2b_1
*I *217:X O *D sky130_fd_sc_hd__a21o_1
*CAP
1 *233:A1 1.61444e-05
2 *218:B 0.000146884
3 *217:X 0.000140855
4 *43:10 0.000303883
5 *218:B *233:A2 9.76358e-05
6 *233:A1 *58:8 2.95125e-05
7 *43:10 *58:8 6.07611e-06
8 *43:10 *62:8 0
9 *216:B *43:10 0.000143655
10 *217:B1 *43:10 8.1796e-05
11 *41:12 *43:10 3.22879e-05
12 *42:10 *233:A1 3.3123e-05
13 *42:10 *43:10 5.56203e-05
14 *42:14 *218:B 1.41077e-05
*RES
1 *217:X *43:10 41.9564 
2 *43:10 *218:B 40.5271 
3 *43:10 *233:A1 38.8493 
*END

*D_NET *44 0.000317541
*CONN
*I *222:A I *D sky130_fd_sc_hd__xor2_1
*I *218:X O *D sky130_fd_sc_hd__and2b_1
*CAP
1 *222:A 9.63021e-05
2 *218:X 9.63021e-05
3 *222:A *222:B 8.57986e-05
4 *222:A *233:A2 3.91386e-05
*RES
1 *218:X *222:A 48.5479 
*END

*D_NET *45 0.00124077
*CONN
*I *243:A2 I *D sky130_fd_sc_hd__a21oi_1
*I *221:B I *D sky130_fd_sc_hd__and3_1
*I *238:C I *D sky130_fd_sc_hd__and4b_1
*I *219:X O *D sky130_fd_sc_hd__a21o_1
*CAP
1 *243:A2 0.000129354
2 *221:B 0
3 *238:C 0.000121847
4 *219:X 6.55472e-05
5 *45:21 0.000278208
6 *45:10 0.000270701
7 *45:8 6.55472e-05
8 *238:C *238:A_N 0
9 *238:C *46:23 3.03209e-05
10 *243:A2 *243:B1 2.07242e-05
11 *243:A2 *244:B 0
12 *243:A2 *46:23 5.90675e-06
13 *238:D *238:C 2.26481e-05
14 *238:D *243:A2 1.32314e-05
15 *238:D *45:21 0.000120867
16 *243:A1 *243:A2 5.50106e-05
17 *40:8 *45:8 0
18 *41:8 *45:8 4.08537e-05
*RES
1 *219:X *45:8 39.2014 
2 *45:8 *45:10 15 
3 *45:10 *238:C 24.9471 
4 *45:10 *45:21 2.52714 
5 *45:21 *221:B 23 
6 *45:21 *243:A2 26.0657 
*END

*D_NET *46 0.0027702
*CONN
*I *243:B1 I *D sky130_fd_sc_hd__a21oi_1
*I *221:C I *D sky130_fd_sc_hd__and3_1
*I *238:B I *D sky130_fd_sc_hd__and4b_1
*I *220:X O *D sky130_fd_sc_hd__a21o_1
*CAP
1 *243:B1 0.000231786
2 *221:C 3.60703e-06
3 *238:B 0
4 *220:X 0.000530187
5 *46:23 0.000441059
6 *46:12 0.000205666
7 *46:10 0.000530187
8 *243:B1 *244:B 5.37348e-06
9 *46:10 *194:A 2.30292e-05
10 *46:10 *194:B 2.13733e-05
11 *46:23 *238:A_N 4.00259e-06
12 *205:B2 *46:10 0
13 *238:C *46:23 3.03209e-05
14 *238:D *46:23 0.000260564
15 *243:A1 *243:B1 9.84851e-05
16 *243:A2 *243:B1 2.07242e-05
17 *243:A2 *46:23 5.90675e-06
18 *41:8 *46:10 0.00035793
*RES
1 *220:X *46:10 47.1557 
2 *46:10 *46:12 15 
3 *46:12 *238:B 23 
4 *46:12 *46:23 4.95071 
5 *46:23 *221:C 23.2279 
6 *46:23 *243:B1 26.9979 
*END

*D_NET *47 0.0022466
*CONN
*I *222:B I *D sky130_fd_sc_hd__xor2_1
*I *233:A2 I *D sky130_fd_sc_hd__a21oi_1
*I *244:A I *D sky130_fd_sc_hd__nor2_1
*I *221:X O *D sky130_fd_sc_hd__and3_1
*CAP
1 *222:B 0.000112369
2 *233:A2 0.0001485
3 *244:A 0
4 *221:X 4.65795e-05
5 *47:27 0.000393138
6 *47:16 0.000441032
7 *47:8 0.00061988
8 *222:B *256:A 0
9 *47:8 *62:8 4.334e-05
10 *47:16 *69:10 4.08537e-05
11 *47:27 *62:8 0.000123326
12 *218:B *233:A2 9.76358e-05
13 *222:A *222:B 8.57986e-05
14 *222:A *233:A2 3.91386e-05
15 *42:14 *233:A2 5.50049e-05
*RES
1 *221:X *47:8 39.2014 
2 *47:8 *47:16 36.3386 
3 *47:16 *244:A 38 
4 *47:8 *47:27 18.3143 
5 *47:27 *233:A2 26.3764 
6 *47:27 *222:B 25.5479 
*END

*D_NET *48 0.000523587
*CONN
*I *241:B1 I *D sky130_fd_sc_hd__a21oi_1
*I *223:Y O *D sky130_fd_sc_hd__nand2_1
*CAP
1 *241:B1 9.21281e-05
2 *223:Y 0.000134223
3 *48:8 0.000226351
4 *241:B1 *61:12 5.50049e-05
5 *48:8 *53:23 0
6 *48:8 *61:12 1.58805e-05
7 *241:A1 *48:8 0
*RES
1 *223:Y *48:8 40.2579 
2 *48:8 *241:B1 39.5743 
*END

*D_NET *49 0.00250123
*CONN
*I *225:A_N I *D sky130_fd_sc_hd__and3b_1
*I *227:A_N I *D sky130_fd_sc_hd__and4bb_1
*I *224:X O *D sky130_fd_sc_hd__and4_1
*CAP
1 *225:A_N 0.000354602
2 *227:A_N 0.000102852
3 *224:X 0.000325313
4 *49:8 0.000782768
5 *225:A_N *225:C 1.94693e-05
6 *225:A_N *228:A 4.85405e-05
7 *225:A_N *228:B 0.000108672
8 *225:A_N *75:107 0.000109791
9 *225:A_N *79:42 1.12487e-05
10 *225:A_N *80:81 5.75972e-05
11 *227:A_N *228:B 4.49946e-05
12 *227:A_N *51:10 4.43717e-05
13 *227:A_N *79:42 9.28842e-05
14 *49:8 *224:C 3.37568e-05
15 *49:8 *79:42 0.000354116
16 *27:6 *225:A_N 1.02557e-05
*RES
1 *224:X *49:8 42.9093 
2 *49:8 *227:A_N 40.61 
3 *49:8 *225:A_N 45.5607 
*END

*D_NET *50 0.000294103
*CONN