*SPEF "ieee 1481-1999"
*DESIGN "SARSA_RUIDO_VENTAJA_e5"
*DATE "11:29:36 Friday September 12, 2025"
*VENDOR "The OpenROAD Project"
*PROGRAM "OpenROAD"
*VERSION "edf00dff99f6c40d67a30c0e22a8191c5d2ed9d6"
*DESIGN_FLOW "NAME_SCOPE LOCAL" "PIN_CAP NONE"
*DIVIDER /
*DELIMITER :
*BUS_DELIMITER []
*T_UNIT 1 NS
*C_UNIT 1 PF
*R_UNIT 1 OHM
*L_UNIT 1 HENRY

*NAME_MAP
*1 A[0]
*2 A[1]
*3 B[0]
*4 B[1]
*5 P[0]
*6 P[1]
*7 P[2]
*8 P[3]
*11 _00_
*12 _01_
*13 _02_
*14 _03_
*15 net1
*16 net2
*17 net3
*18 net4
*19 net5
*20 net6
*21 net7
*22 net8
*23 FILLER_0_15
*24 FILLER_0_27
*25 FILLER_0_29
*26 FILLER_0_3
*27 FILLER_0_34
*28 FILLER_0_42
*29 FILLER_0_49
*30 FILLER_0_55
*31 FILLER_0_57
*32 FILLER_0_69
*33 FILLER_1_15
*34 FILLER_1_27
*35 FILLER_1_3
*36 FILLER_1_39
*37 FILLER_1_51
*38 FILLER_1_55
*39 FILLER_1_57
*40 FILLER_1_69
*41 FILLER_2_15
*42 FILLER_2_27
*43 FILLER_2_29
*44 FILLER_2_3
*45 FILLER_2_41
*46 FILLER_2_53
*47 FILLER_2_65
*48 FILLER_2_77
*49 FILLER_3_15
*50 FILLER_3_27
*51 FILLER_3_3
*52 FILLER_3_41
*53 FILLER_3_53
*54 FILLER_3_57
*55 FILLER_3_69
*56 FILLER_4_15
*57 FILLER_4_27
*58 FILLER_4_29
*59 FILLER_4_3
*60 FILLER_4_41
*61 FILLER_4_53
*62 FILLER_4_65
*63 FILLER_4_77
*64 FILLER_5_15
*65 FILLER_5_27
*66 FILLER_5_3
*67 FILLER_5_35
*68 FILLER_5_42
*69 FILLER_5_54
*70 FILLER_5_57
*71 FILLER_5_69
*72 FILLER_6_15
*73 FILLER_6_27
*74 FILLER_6_29
*75 FILLER_6_3
*76 FILLER_6_41
*77 FILLER_6_53
*78 FILLER_6_65
*79 FILLER_6_77
*80 FILLER_7_15
*81 FILLER_7_27
*82 FILLER_7_3
*83 FILLER_7_39
*84 FILLER_7_44
*85 FILLER_7_57
*86 FILLER_7_69
*87 FILLER_8_15
*88 FILLER_8_27
*89 FILLER_8_29
*90 FILLER_8_3
*91 FILLER_8_51
*92 FILLER_8_63
*93 FILLER_8_75
*94 FILLER_9_15
*95 FILLER_9_27
*96 FILLER_9_29
*97 FILLER_9_3
*98 FILLER_9_34
*99 FILLER_9_48
*100 FILLER_9_57
*101 FILLER_9_62
*102 FILLER_9_74
*103 FILLER_9_80
*104 PHY_EDGE_ROW_0_Left_10
*105 PHY_EDGE_ROW_0_Right_0
*106 PHY_EDGE_ROW_1_Left_11
*107 PHY_EDGE_ROW_1_Right_1
*108 PHY_EDGE_ROW_2_Left_12
*109 PHY_EDGE_ROW_2_Right_2
*110 PHY_EDGE_ROW_3_Left_13
*111 PHY_EDGE_ROW_3_Right_3
*112 PHY_EDGE_ROW_4_Left_14
*113 PHY_EDGE_ROW_4_Right_4
*114 PHY_EDGE_ROW_5_Left_15
*115 PHY_EDGE_ROW_5_Right_5
*116 PHY_EDGE_ROW_6_Left_16
*117 PHY_EDGE_ROW_6_Right_6
*118 PHY_EDGE_ROW_7_Left_17
*119 PHY_EDGE_ROW_7_Right_7
*120 PHY_EDGE_ROW_8_Left_18
*121 PHY_EDGE_ROW_8_Right_8
*122 PHY_EDGE_ROW_9_Left_19
*123 PHY_EDGE_ROW_9_Right_9
*124 TAP_TAPCELL_ROW_0_20
*125 TAP_TAPCELL_ROW_0_21
*126 TAP_TAPCELL_ROW_1_22
*127 TAP_TAPCELL_ROW_2_23
*128 TAP_TAPCELL_ROW_3_24
*129 TAP_TAPCELL_ROW_4_25
*130 TAP_TAPCELL_ROW_5_26
*131 TAP_TAPCELL_ROW_6_27
*132 TAP_TAPCELL_ROW_7_28
*133 TAP_TAPCELL_ROW_8_29
*134 TAP_TAPCELL_ROW_9_30
*135 TAP_TAPCELL_ROW_9_31
*136 _04_
*137 _05_
*138 _06_
*139 _07_
*140 _08_
*141 _09_
*142 _10_
*143 _11_
*144 input1
*145 input2
*146 input3
*147 input4
*148 output5
*149 output6
*150 output7
*151 output8

*PORTS
A[0] I
A[1] I
B[0] I
B[1] I
P[0] O
P[1] O
P[2] O
P[3] O

*D_NET *1 0.000950239
*CONN
*P A[0] I
*I *144:A I *D sky130_fd_sc_hd__buf_1
*CAP
1 A[0] 0.00047512
2 *144:A 0.00047512
3 *144:A P[3] 0
*RES
1 A[0] *144:A 12.06 
*END

*D_NET *2 0.000955564
*CONN
*P A[1] I
*I *145:A I *D sky130_fd_sc_hd__clkbuf_1
*CAP
1 A[1] 0.00047303
2 *145:A 0.00047303
3 *145:A P[0] 0
4 *145:A P[3] 0
5 *145:A *151:A 9.50342e-06
*RES
1 A[1] *145:A 12.06 
*END

*D_NET *3 0.000786235
*CONN
*P B[0] I
*I *146:A I *D sky130_fd_sc_hd__buf_1
*CAP
1 B[0] 0.000393118
2 *146:A 0.000393118
3 *146:A P[2] 0
*RES
1 B[0] *146:A 10.35 
*END

*D_NET *4 0.000874227
*CONN
*P B[1] I
*I *147:A I *D sky130_fd_sc_hd__buf_1
*CAP
1 B[1] 0.000437114
2 *147:A 0.000437114
3 *147:A P[0] 0
4 *147:A *148:A 0
*RES
1 B[1] *147:A 11.37 
*END

*D_NET *5 0.00085605
*CONN
*P P[0] O
*I *148:X O *D sky130_fd_sc_hd__buf_2
*CAP
1 P[0] 0.000428025
2 *148:X 0.000428025
3 *145:A P[0] 0
4 *147:A P[0] 0
*RES
1 *148:X P[0] 11.205 
*END

*D_NET *6 0.000868071
*CONN
*P P[1] O
*I *149:X O *D sky130_fd_sc_hd__buf_2
*CAP
1 P[1] 0.000434035
2 *149:X 0.000434035
3 P[1] P[2] 0
*RES
1 *149:X P[1] 10.74 
*END

*D_NET *7 0.000878644
*CONN
*P P[2] O
*I *150:X O *D sky130_fd_sc_hd__buf_2
*CAP
1 P[2] 0.000431822
2 *150:X 0.000431822
3 P[2] *17:10 1.49988e-05
4 P[1] P[2] 0
5 *146:A P[2] 0
*RES
1 *150:X P[2] 10.53 
*END

*D_NET *8 0.000894056
*CONN
*P P[3] O
*I *151:X O *D sky130_fd_sc_hd__buf_2
*CAP
1 P[3] 0.000447028
2 *151:X 0.000447028
3 *144:A P[3] 0
4 *145:A P[3] 0
*RES
1 *151:X P[3] 11.55 
*END

*D_NET *11 0.00158023
*CONN
*I *142:A1 I *D sky130_fd_sc_hd__a21oi_1
*I *143:B1_N I *D sky130_fd_sc_hd__a21boi_1
*I *137:X O *D sky130_fd_sc_hd__and2_1
*CAP
1 *142:A1 0
2 *143:B1_N 0.0001576
3 *137:X 0.000371582
4 *11:12 0.000529182
5 *143:B1_N *150:A 1.75688e-05
6 *143:B1_N *17:10 4.43871e-06
7 *143:B1_N *17:29 6.11019e-05
8 *11:12 *136:A 6.31104e-05
9 *11:12 *142:A2 0.000141606
10 *11:12 *142:B1 0.000234036
11 *11:12 *17:29 0
12 *11:12 *18:14 0
*RES
1 *137:X *11:12 12.165 
2 *11:12 *143:B1_N 6.375 
3 *11:12 *142:A1 3.6 
*END

*D_NET *12 0.00195425
*CONN
*I *142:B1 I *D sky130_fd_sc_hd__a21oi_1
*I *140:Y O *D sky130_fd_sc_hd__nor2_1
*CAP
1 *142:B1 0.000515014
2 *140:Y 0.000515014
3 *142:B1 *136:A 0.000116853
4 *142:B1 *140:A 4.60123e-05
5 *142:B1 *142:A2 0.000141606
6 *142:B1 *148:A 7.01303e-05
7 *142:B1 *16:16 7.22174e-05
8 *142:B1 *17:29 0.000106668
9 *142:B1 *18:14 5.51574e-05
10 *142:B1 *18:16 8.15388e-05
11 *11:12 *142:B1 0.000234036
*RES
1 *140:Y *142:B1 18.48 
*END

*D_NET *13 0.000472571
*CONN
*I *142:A2 I *D sky130_fd_sc_hd__a21oi_1
*I *141:Y O *D sky130_fd_sc_hd__nand2b_1
*CAP
1 *142:A2 9.46793e-05
2 *141:Y 9.46793e-05
3 *142:B1 *142:A2 0.000141606
4 *11:12 *142:A2 0.000141606
*RES
1 *141:Y *142:A2 9.63 
*END

*D_NET *14 0.000742747
*CONN
*I *139:A2 I *D sky130_fd_sc_hd__a21o_1
*I *136:Y O *D sky130_fd_sc_hd__inv_2
*CAP
1 *139:A2 0.000355912
2 *136:Y 0.000355912
3 *139:A2 *15:12 3.09233e-05
4 *139:A2 *15:25 0
*RES
1 *136:Y *139:A2 11.445 
*END

*D_NET *15 0.00424612
*CONN
*I *139:A1 I *D sky130_fd_sc_hd__a21o_1
*I *141:B I *D sky130_fd_sc_hd__nand2b_1
*I *143:A1 I *D sky130_fd_sc_hd__a21boi_1
*I *138:A I *D sky130_fd_sc_hd__and4_1
*I *144:X O *D sky130_fd_sc_hd__buf_1
*CAP
1 *139:A1 0
2 *141:B 0.00014579
3 *143:A1 0.000422335
4 *138:A 9.57171e-05
5 *144:X 0.000321845
6 *15:25 0.000828915
7 *15:14 0.000420824
8 *15:12 0.000386161
9 *138:A *137:B 0.000158434
10 *138:A *138:B 4.66108e-05
11 *138:A *138:C 0.000159394
12 *138:A *148:A 8.12896e-06
13 *138:A *16:16 3.75126e-05
14 *138:A *22:6 8.52845e-05
15 *141:B *138:C 0.000111925
16 *141:B *141:A_N 4.77719e-05
17 *143:A1 *149:A 0.000157097
18 *15:12 *151:A 0.000238267
19 *15:14 *151:A 3.83041e-05
20 *15:14 *22:6 4.82919e-05
21 *15:25 *138:C 0.000456591
22 *139:A2 *15:12 3.09233e-05
23 *139:A2 *15:25 0
*RES
1 *144:X *15:12 11.3 
2 *15:12 *15:14 1.14 
3 *15:14 *138:A 4.465 
4 *15:14 *15:25 7.97 
5 *15:25 *143:A1 9.54 
6 *15:25 *141:B 6.24375 
7 *15:12 *139:A1 1.6 
*END

*D_NET *16 0.00111124
*CONN
*I *140:B I *D sky130_fd_sc_hd__nor2_1
*I *138:D I *D sky130_fd_sc_hd__and4_1
*I *137:B I *D sky130_fd_sc_hd__and2_1
*I *145:X O *D sky130_fd_sc_hd__clkbuf_1
*CAP
1 *140:B 2.98392e-05
2 *138:D 0
3 *137:B 9.6694e-05
4 *145:X 2.80898e-05
5 *16:16 0.000232279
6 *16:6 0.000193514
7 *137:B *137:A 0.000161101
8 *137:B *148:A 1.9872e-05
9 *140:B *140:A 1.75875e-05
10 *16:16 *148:A 6.41019e-05
11 *138:A *137:B 0.000158434
12 *138:A *16:16 3.75126e-05
13 *142:B1 *16:16 7.22174e-05
*RES
1 *145:X *16:6 2.05 
2 *16:6 *16:16 6.79 
3 *16:16 *137:B 4.12 
4 *16:16 *138:D 1.6 
5 *16:6 *140:B 2.215 
*END

*D_NET *17 0.00364421
*CONN
*I *138:C I *D sky130_fd_sc_hd__and4_1
*I *141:A_N I *D sky130_fd_sc_hd__nand2b_1
*I *143:A2 I *D sky130_fd_sc_hd__a21boi_1
*I *146:X O *D sky130_fd_sc_hd__buf_1
*CAP
1 *138:C 0.000403176
2 *141:A_N 2.27131e-05
3 *143:A2 0
4 *146:X 0.000496043
5 *17:29 0.000695879
6 *17:10 0.000766033
7 *17:10 *150:A 0.000241145
8 *17:29 *149:A 5.63317e-05
9 P[2] *17:10 1.49988e-05
10 *138:A *138:C 0.000159394
11 *141:B *138:C 0.000111925
12 *141:B *141:A_N 4.77719e-05
13 *142:B1 *17:29 0.000106668
14 *143:B1_N *17:10 4.43871e-06
15 *143:B1_N *17:29 6.11019e-05
16 *11:12 *17:29 0
17 *15:25 *138:C 0.000456591
*RES
1 *146:X *17:10 11.835 
2 *17:10 *143:A2 3.6 
3 *17:10 *17:29 11.085 
4 *17:29 *141:A_N 2.05 
5 *17:29 *138:C 13.685 
*END

*D_NET *18 0.00193183
*CONN
*I *140:A I *D sky130_fd_sc_hd__nor2_1
*I *137:A I *D sky130_fd_sc_hd__and2_1
*I *138:B I *D sky130_fd_sc_hd__and4_1
*I *136:A I *D sky130_fd_sc_hd__inv_2
*I *147:X O *D sky130_fd_sc_hd__buf_1
*CAP
1 *140:A 0.000104278
2 *137:A 0.000112776
3 *138:B 3.69588e-05
4 *136:A 9.95445e-05
5 *147:X 0.000148856
6 *18:16 0.000180526
7 *18:14 0.000273166
8 *18:8 0.000369502
9 *18:14 *148:A 1.82476e-05
10 *137:B *137:A 0.000161101
11 *138:A *138:B 4.66108e-05
12 *140:B *140:A 1.75875e-05
13 *142:B1 *136:A 0.000116853
14 *142:B1 *140:A 4.60123e-05
15 *142:B1 *18:14 5.51574e-05
16 *142:B1 *18:16 8.15388e-05
17 *11:12 *136:A 6.31104e-05
18 *11:12 *18:14 0
*RES
1 *147:X *18:8 3.79 
2 *18:8 *18:14 4.2125 
3 *18:14 *18:16 0.9975 
4 *18:16 *136:A 5.775 
5 *18:16 *138:B 4.05 
6 *18:14 *137:A 5.775 
7 *18:8 *140:A 3.445 
*END

*D_NET *19 0.000577694
*CONN
*I *148:A I *D sky130_fd_sc_hd__buf_2
*I *139:X O *D sky130_fd_sc_hd__a21o_1
*CAP
1 *148:A 0.000188671
2 *139:X 0.000188671
3 *148:A *22:6 1.9872e-05
4 *137:B *148:A 1.9872e-05
5 *138:A *148:A 8.12896e-06
6 *142:B1 *148:A 7.01303e-05
7 *147:A *148:A 0
8 *16:16 *148:A 6.41019e-05
9 *18:14 *148:A 1.82476e-05
*RES
1 *139:X *148:A 10.32 
*END

*D_NET *20 0.0014859
*CONN
*I *149:A I *D sky130_fd_sc_hd__buf_2
*I *142:Y O *D sky130_fd_sc_hd__a21oi_1
*CAP
1 *149:A 0.000636234
2 *142:Y 0.000636234
3 *149:A *150:A 0
4 *143:A1 *149:A 0.000157097
5 *17:29 *149:A 5.63317e-05
*RES
1 *142:Y *149:A 17.805 
*END

*D_NET *21 0.000865437
*CONN
*I *150:A I *D sky130_fd_sc_hd__buf_2
*I *143:Y O *D sky130_fd_sc_hd__a21boi_1
*CAP
1 *150:A 0.000303362
2 *143:Y 0.000303362
3 *143:B1_N *150:A 1.75688e-05
4 *149:A *150:A 0
5 *17:10 *150:A 0.000241145
*RES
1 *143:Y *150:A 13.365 
*END

*D_NET *22 0.000948872
*CONN
*I *151:A I *D sky130_fd_sc_hd__buf_2
*I *139:B1 I *D sky130_fd_sc_hd__a21o_1
*I *138:X O *D sky130_fd_sc_hd__and4_1
*CAP
1 *151:A 0.00021413
2 *139:B1 0
3 *138:X 4.05445e-05
4 *22:6 0.000254674
5 *138:A *22:6 8.52845e-05
6 *145:A *151:A 9.50342e-06
7 *148:A *22:6 1.9872e-05
8 *15:12 *151:A 0.000238267
9 *15:14 *151:A 3.83041e-05
10 *15:14 *22:6 4.82919e-05
*RES
1 *138:X *22:6 2.74 
2 *22:6 *139:B1 1.6 
3 *22:6 *151:A 9.935 
*END
