*SPEF "ieee 1481-1999"
*DESIGN "e9_SARSA_nSteps_INDEPENDIENTES"
*DATE "11:58:40 Friday September 12, 2025"
*VENDOR "The OpenROAD Project"
*PROGRAM "OpenROAD"
*VERSION "edf00dff99f6c40d67a30c0e22a8191c5d2ed9d6"
*DESIGN_FLOW "NAME_SCOPE LOCAL" "PIN_CAP NONE"
*DIVIDER /
*DELIMITER :
*BUS_DELIMITER []
*T_UNIT 1 NS
*C_UNIT 1 PF
*R_UNIT 1 OHM
*L_UNIT 1 HENRY

*NAME_MAP
*1 A[0]
*2 A[1]
*3 B[0]
*4 B[1]
*5 P[0]
*6 P[1]
*7 P[2]
*8 P[3]
*11 _0_
*12 _1_
*13 _2_
*14 net1
*15 net2
*16 net3
*17 net4
*18 net5
*19 net6
*20 net7
*21 net8
*22 FILLER_0_15
*23 FILLER_0_23
*24 FILLER_0_27
*25 FILLER_0_29
*26 FILLER_0_3
*27 FILLER_0_34
*28 FILLER_0_41
*29 FILLER_0_49
*30 FILLER_0_55
*31 FILLER_0_57
*32 FILLER_0_69
*33 FILLER_1_15
*34 FILLER_1_27
*35 FILLER_1_3
*36 FILLER_1_39
*37 FILLER_1_47
*38 FILLER_1_55
*39 FILLER_1_57
*40 FILLER_1_69
*41 FILLER_2_15
*42 FILLER_2_27
*43 FILLER_2_29
*44 FILLER_2_3
*45 FILLER_2_37
*46 FILLER_2_44
*47 FILLER_2_54
*48 FILLER_2_58
*49 FILLER_2_73
*50 FILLER_3_15
*51 FILLER_3_27
*52 FILLER_3_3
*53 FILLER_3_39
*54 FILLER_3_51
*55 FILLER_3_55
*56 FILLER_3_57
*57 FILLER_3_65
*58 FILLER_3_72
*59 FILLER_3_80
*60 FILLER_4_15
*61 FILLER_4_27
*62 FILLER_4_29
*63 FILLER_4_3
*64 FILLER_4_41
*65 FILLER_4_53
*66 FILLER_4_65
*67 FILLER_4_77
*68 FILLER_5_15
*69 FILLER_5_27
*70 FILLER_5_3
*71 FILLER_5_39
*72 FILLER_5_51
*73 FILLER_5_55
*74 FILLER_5_57
*75 FILLER_5_69
*76 FILLER_6_15
*77 FILLER_6_27
*78 FILLER_6_29
*79 FILLER_6_3
*80 FILLER_6_41
*81 FILLER_6_53
*82 FILLER_6_65
*83 FILLER_7_15
*84 FILLER_7_27
*85 FILLER_7_3
*86 FILLER_7_39
*87 FILLER_7_51
*88 FILLER_7_55
*89 FILLER_7_57
*90 FILLER_7_69
*91 FILLER_8_15
*92 FILLER_8_27
*93 FILLER_8_29
*94 FILLER_8_3
*95 FILLER_8_41
*96 FILLER_8_53
*97 FILLER_8_65
*98 FILLER_8_77
*99 FILLER_9_15
*100 FILLER_9_27
*101 FILLER_9_29
*102 FILLER_9_3
*103 FILLER_9_41
*104 FILLER_9_53
*105 FILLER_9_57
*106 FILLER_9_69
*107 PHY_EDGE_ROW_0_Left_10
*108 PHY_EDGE_ROW_0_Right_0
*109 PHY_EDGE_ROW_1_Left_11
*110 PHY_EDGE_ROW_1_Right_1
*111 PHY_EDGE_ROW_2_Left_12
*112 PHY_EDGE_ROW_2_Right_2
*113 PHY_EDGE_ROW_3_Left_13
*114 PHY_EDGE_ROW_3_Right_3
*115 PHY_EDGE_ROW_4_Left_14
*116 PHY_EDGE_ROW_4_Right_4
*117 PHY_EDGE_ROW_5_Left_15
*118 PHY_EDGE_ROW_5_Right_5
*119 PHY_EDGE_ROW_6_Left_16
*120 PHY_EDGE_ROW_6_Right_6
*121 PHY_EDGE_ROW_7_Left_17
*122 PHY_EDGE_ROW_7_Right_7
*123 PHY_EDGE_ROW_8_Left_18
*124 PHY_EDGE_ROW_8_Right_8
*125 PHY_EDGE_ROW_9_Left_19
*126 PHY_EDGE_ROW_9_Right_9
*127 TAP_TAPCELL_ROW_0_20
*128 TAP_TAPCELL_ROW_0_21
*129 TAP_TAPCELL_ROW_1_22
*130 TAP_TAPCELL_ROW_2_23
*131 TAP_TAPCELL_ROW_3_24
*132 TAP_TAPCELL_ROW_4_25
*133 TAP_TAPCELL_ROW_5_26
*134 TAP_TAPCELL_ROW_6_27
*135 TAP_TAPCELL_ROW_7_28
*136 TAP_TAPCELL_ROW_8_29
*137 TAP_TAPCELL_ROW_9_30
*138 TAP_TAPCELL_ROW_9_31
*139 _3_
*140 _4_
*141 _5_
*142 _6_
*143 _7_
*144 _8_
*145 _9_
*146 input1
*147 input2
*148 input3
*149 input4
*150 output5
*151 output6
*152 output7
*153 output8

*PORTS
A[0] I
A[1] I
B[0] I
B[1] I
P[0] O
P[1] O
P[2] O
P[3] O

*D_NET *1 0.000901682
*CONN
*P A[0] I
*I *146:A I *D sky130_fd_sc_hd__buf_1
*CAP
1 A[0] 0.000450841
2 *146:A 0.000450841
3 *146:A *147:A 0
*RES
1 A[0] *146:A 47.3214 
*END

*D_NET *2 0.000911302
*CONN
*P A[1] I
*I *147:A I *D sky130_fd_sc_hd__buf_1
*CAP
1 A[1] 0.000440959
2 *147:A 0.000440959
3 *147:A *148:A 0
4 *147:A *14:10 2.93845e-05
5 *146:A *147:A 0
*RES
1 A[1] *147:A 47.3214 
*END

*D_NET *3 0.00091254
*CONN
*P B[0] I
*I *148:A I *D sky130_fd_sc_hd__buf_1
*CAP
1 B[0] 0.000441578
2 *148:A 0.000441578
3 *148:A P[2] 0
4 *148:A *14:10 2.93845e-05
5 *147:A *148:A 0
*RES
1 B[0] *148:A 47.3214 
*END

*D_NET *4 0.000906268
*CONN
*P B[1] I
*I *149:A I *D sky130_fd_sc_hd__buf_1
*CAP
1 B[1] 0.000451026
2 *149:A 0.000451026
3 *149:A P[2] 0
4 *149:A *20:10 4.21594e-06
*RES
1 B[1] *149:A 47.3214 
*END

*D_NET *5 0.000516158
*CONN
*P P[0] O
*I *150:X O *D sky130_fd_sc_hd__buf_2
*CAP
1 P[0] 0.000214391
2 *150:X 0.000214391
3 P[0] P[1] 8.73764e-05
4 P[0] *18:8 0
*RES
1 *150:X P[0] 47.1648 
*END

*D_NET *6 0.000615256
*CONN
*P P[1] O
*I *151:X O *D sky130_fd_sc_hd__buf_2
*CAP
1 P[1] 0.000245959
2 *151:X 0.000245959
3 P[1] P[3] 0
4 P[1] *19:10 3.59619e-05
5 P[0] P[1] 8.73764e-05
*RES
1 *151:X P[1] 47.8691 
*END

*D_NET *7 0.000914954
*CONN
*P P[2] O
*I *152:X O *D sky130_fd_sc_hd__buf_2
*CAP
1 P[2] 0.000457477
2 *152:X 0.000457477
3 *148:A P[2] 0
4 *149:A P[2] 0
*RES
1 *152:X P[2] 47.3836 
*END

*D_NET *8 0.000560325
*CONN
*P P[3] O
*I *153:X O *D sky130_fd_sc_hd__buf_2
*CAP
1 P[3] 0.000280163
2 *153:X 0.000280163
3 P[1] P[3] 0
*RES
1 *153:X P[3] 47.5169 
*END

*D_NET *11 0.000615141
*CONN
*I *143:A2 I *D sky130_fd_sc_hd__o211a_1
*I *140:Y O *D sky130_fd_sc_hd__inv_2
*CAP
1 *143:A2 9.11985e-05
2 *140:Y 9.11985e-05
3 *143:A2 *140:A 1.76557e-05
4 *143:A2 *143:B1 3.91386e-05
5 *143:A2 *153:A 0.000185434
6 *143:A2 *13:8 3.61695e-05
7 *143:A2 *13:21 0.000141052
8 *143:A2 *19:10 1.32939e-05
*RES
1 *140:Y *143:A2 49.5007 
*END

*D_NET *12 0.000724252
*CONN
*I *145:B I *D sky130_fd_sc_hd__and3b_1
*I *144:X O *D sky130_fd_sc_hd__or3_1
*CAP
1 *145:B 4.58252e-05
2 *144:X 0.000226647
3 *12:10 0.000272472
4 *145:B *145:A_N 1.83327e-05
5 *12:10 *15:16 9.93575e-05
6 *12:10 *20:10 2.24366e-06
7 *12:10 *21:8 5.93746e-05
*RES
1 *144:X *12:10 42.06 
2 *12:10 *145:B 38.6214 
*END

*D_NET *13 0.001288
*CONN
*I *142:A I *D sky130_fd_sc_hd__or2_1
*I *143:A1 I *D sky130_fd_sc_hd__o211a_1
*I *139:Y O *D sky130_fd_sc_hd__inv_2
*CAP
1 *142:A 0
2 *143:A1 0
3 *139:Y 6.78389e-05
4 *13:21 0.000204895
5 *13:8 0.000272734
6 *13:8 *140:A 0.000274078
7 *13:8 *143:B1 3.53115e-05
8 *13:8 *143:C1 5.70419e-05
9 *13:21 *140:A 6.68919e-05
10 *13:21 *142:B 0.000125915
11 *13:21 *18:8 6.07611e-06
12 *13:21 *19:10 0
13 *143:A2 *13:8 3.61695e-05
14 *143:A2 *13:21 0.000141052
*RES
1 *139:Y *13:8 26.5007 
2 *13:8 *143:A1 23 
3 *13:8 *13:21 34.8886 
4 *13:21 *142:A 23 
*END

*D_NET *14 0.00464472
*CONN
*I *140:A I *D sky130_fd_sc_hd__inv_2
*I *141:D I *D sky130_fd_sc_hd__and4_1
*I *144:C I *D sky130_fd_sc_hd__or3_1
*I *146:X O *D sky130_fd_sc_hd__buf_1
*CAP
1 *140:A 0.000558662
2 *141:D 0
3 *144:C 0
4 *146:X 0.000478445
5 *14:35 0.000179102
6 *14:23 0.00091719
7 *14:14 0.000222943
8 *14:10 0.000521963
9 *140:A *139:A 0.000128401
10 *140:A *141:A 2.93747e-05
11 *140:A *143:C1 4.22202e-05
12 *140:A *153:A 0
13 *140:A *16:17 9.30054e-05
14 *140:A *19:10 5.50106e-05
15 *14:10 *144:B 5.33597e-05
16 *14:10 *15:10 0.000535698
17 *14:14 *15:16 1.24376e-05
18 *14:23 *15:16 1.41129e-05
19 *14:23 *16:17 0.000318946
20 *14:35 *15:16 5.50106e-05
21 *14:35 *21:8 1.14452e-05
22 *143:A2 *140:A 1.76557e-05
23 *147:A *14:10 2.93845e-05
24 *148:A *14:10 2.93845e-05
25 *13:8 *140:A 0.000274078
26 *13:21 *140:A 6.68919e-05
*RES
1 *146:X *14:10 48.9371 
2 *14:10 *14:14 15.6214 
3 *14:14 *144:C 23 
4 *14:14 *14:23 4.45357 
5 *14:23 *14:35 32.5893 
6 *14:35 *141:D 23 
7 *14:23 *140:A 35.4493 
*END

*D_NET *15 0.00441386
*CONN
*I *144:B I *D sky130_fd_sc_hd__or3_1
*I *141:C I *D sky130_fd_sc_hd__and4_1
*I *143:B1 I *D sky130_fd_sc_hd__o211a_1
*I *147:X O *D sky130_fd_sc_hd__buf_1
*CAP
1 *144:B 0.000131885
2 *141:C 0
3 *143:B1 0.000446909
4 *147:X 0.000296235
5 *15:16 0.000681503
6 *15:10 0.000662714
7 *143:B1 *143:C1 0.000520515
8 *143:B1 *16:17 1.72202e-05
9 *144:B *16:8 6.16439e-05
10 *15:10 *16:8 0.000302339
11 *15:16 *16:17 0.000448468
12 *143:A2 *143:B1 3.91386e-05
13 *12:10 *15:16 9.93575e-05
14 *13:8 *143:B1 3.53115e-05
15 *14:10 *144:B 5.33597e-05
16 *14:10 *15:10 0.000535698
17 *14:14 *15:16 1.24376e-05
18 *14:23 *15:16 1.41129e-05
19 *14:35 *15:16 5.50106e-05
*RES
1 *147:X *15:10 45.0221 
2 *15:10 *15:16 20.8829 
3 *15:16 *143:B1 31.1614 
4 *15:16 *141:C 23 
5 *15:10 *144:B 39.9057 
*END

*D_NET *16 0.00295454
*CONN
*I *141:B I *D sky130_fd_sc_hd__and4_1
*I *143:C1 I *D sky130_fd_sc_hd__o211a_1
*I *144:A I *D sky130_fd_sc_hd__or3_1
*I *148:X O *D sky130_fd_sc_hd__buf_1
*CAP
1 *141:B 0
2 *143:C1 0.000116503
3 *144:A 0
4 *148:X 0.000196079
5 *16:17 0.000214753
6 *16:10 9.82502e-05
7 *16:8 0.000196079
8 *143:C1 *139:A 0.000216471
9 *143:C1 *141:A 5.50049e-05
10 *140:A *143:C1 4.22202e-05
11 *140:A *16:17 9.30054e-05
12 *143:B1 *143:C1 0.000520515
13 *143:B1 *16:17 1.72202e-05
14 *144:B *16:8 6.16439e-05
15 *13:8 *143:C1 5.70419e-05
16 *14:23 *16:17 0.000318946
17 *15:10 *16:8 0.000302339
18 *15:16 *16:17 0.000448468
*RES
1 *148:X *16:8 42.7229 
2 *16:8 *16:10 15 
3 *16:10 *144:A 23 
4 *16:10 *16:17 5.38571 
5 *16:17 *143:C1 29.38 
6 *16:17 *141:B 23 
*END

*D_NET *17 0.00207026
*CONN
*I *139:A I *D sky130_fd_sc_hd__inv_2
*I *141:A I *D sky130_fd_sc_hd__and4_1
*I *145:C I *D sky130_fd_sc_hd__and3b_1
*I *149:X O *D sky130_fd_sc_hd__buf_1
*CAP
1 *139:A 4.09993e-05
2 *141:A 1.80505e-05
3 *145:C 0.00023052
4 *149:X 0.000157044
5 *17:21 0.000205876
6 *17:8 0.00053439
7 *145:C *145:A_N 0.000139974
8 *145:C *21:23 0.000314157
9 *17:8 *20:10 0
10 *17:21 *21:8 0
11 *140:A *139:A 0.000128401
12 *140:A *141:A 2.93747e-05
13 *143:C1 *139:A 0.000216471
14 *143:C1 *141:A 5.50049e-05
*RES
1 *149:X *17:8 40.61 
2 *17:8 *145:C 42.9093 
3 *17:8 *17:21 17.2579 
4 *17:21 *141:A 23.6214 
5 *17:21 *139:A 25.5271 
*END

*D_NET *18 0.00120093
*CONN
*I *150:A I *D sky130_fd_sc_hd__buf_2
*I *142:X O *D sky130_fd_sc_hd__or2_1
*CAP
1 *150:A 0.000170655
2 *142:X 0.000426772
3 *18:8 0.000597426
4 *18:8 *19:10 0
5 P[0] *18:8 0
6 *13:21 *18:8 6.07611e-06
*RES
1 *142:X *18:8 46.2443 
2 *18:8 *150:A 41.0036 
*END

*D_NET *19 0.00148646
*CONN
*I *151:A I *D sky130_fd_sc_hd__buf_2
*I *143:X O *D sky130_fd_sc_hd__o211a_1
*CAP
1 *151:A 0
2 *143:X 0.000675655
3 *19:10 0.000675655
4 *19:10 *153:A 3.08848e-05
5 P[1] *19:10 3.59619e-05
6 *140:A *19:10 5.50106e-05
7 *143:A2 *19:10 1.32939e-05
8 *13:21 *19:10 0
9 *18:8 *19:10 0
*RES
1 *143:X *19:10 49.8486 
2 *19:10 *151:A 38 
*END

*D_NET *20 0.000451298
*CONN
*I *152:A I *D sky130_fd_sc_hd__buf_2
*I *145:X O *D sky130_fd_sc_hd__and3b_1
*CAP
1 *152:A 0
2 *145:X 0.000203856
3 *20:10 0.000203856
4 *20:10 *145:A_N 2.30292e-05
5 *20:10 *21:23 1.40958e-05
6 *149:A *20:10 4.21594e-06
7 *12:10 *20:10 2.24366e-06
8 *17:8 *20:10 0
*RES
1 *145:X *20:10 41.3557 
2 *20:10 *152:A 38 
*END

*D_NET *21 0.00376164
*CONN
*I *142:B I *D sky130_fd_sc_hd__or2_1
*I *153:A I *D sky130_fd_sc_hd__buf_2
*I *145:A_N I *D sky130_fd_sc_hd__and3b_1
*I *141:X O *D sky130_fd_sc_hd__and4_1
*CAP
1 *142:B 0.000216729
2 *153:A 0.000362662
3 *145:A_N 0.000157782
4 *141:X 0.000103232
5 *21:23 0.00115848
6 *21:10 0.000736875
7 *21:8 0.000103232
8 *140:A *153:A 0
9 *143:A2 *153:A 0.000185434
10 *145:B *145:A_N 1.83327e-05
11 *145:C *145:A_N 0.000139974
12 *145:C *21:23 0.000314157
13 *12:10 *21:8 5.93746e-05
14 *13:21 *142:B 0.000125915
15 *14:35 *21:8 1.14452e-05
16 *17:21 *21:8 0
17 *19:10 *153:A 3.08848e-05
18 *20:10 *145:A_N 2.30292e-05
19 *20:10 *21:23 1.40958e-05
*RES
1 *141:X *21:8 39.9057 
2 *21:8 *21:10 15 
3 *21:10 *145:A_N 26.48 
4 *21:10 *21:23 26.5793 
5 *21:23 *153:A 43.7586 
6 *21:23 *142:B 42.0186 
*END
