*SPEF "ieee 1481-1999"
*DESIGN "mult8_2bits_1op_e17109"
*DATE "14:48:59 Tuesday September 16, 2025"
*VENDOR "The OpenROAD Project"
*PROGRAM "OpenROAD"
*VERSION "edf00dff99f6c40d67a30c0e22a8191c5d2ed9d6"
*DESIGN_FLOW "NAME_SCOPE LOCAL" "PIN_CAP NONE"
*DIVIDER /
*DELIMITER :
*BUS_DELIMITER []
*T_UNIT 1 NS
*C_UNIT 1 PF
*R_UNIT 1 OHM
*L_UNIT 1 HENRY

*NAME_MAP
*1 A[0]
*2 A[1]
*3 A[2]
*4 A[3]
*5 A[4]
*6 A[5]
*7 A[6]
*8 A[7]
*9 B[0]
*10 B[1]
*11 B[2]
*12 B[3]
*13 B[4]
*14 B[5]
*15 B[6]
*16 B[7]
*17 P[0]
*18 P[10]
*19 P[11]
*20 P[12]
*21 P[13]
*22 P[14]
*23 P[15]
*24 P[1]
*25 P[2]
*26 P[3]
*27 P[4]
*28 P[5]
*29 P[6]
*30 P[7]
*31 P[8]
*32 P[9]
*35 _000_
*36 _001_
*37 _002_
*38 _003_
*39 _004_
*40 _005_
*41 _006_
*42 _007_
*43 _008_
*44 _009_
*45 _010_
*46 _011_
*47 _012_
*48 _013_
*49 _014_
*50 _015_
*51 _016_
*52 _017_
*53 _018_
*54 _019_
*55 _020_
*56 _021_
*57 _022_
*58 _023_
*59 _024_
*60 _025_
*61 _026_
*62 _027_
*63 _028_
*64 _029_
*65 _030_
*66 _031_
*67 _032_
*68 _033_
*69 _034_
*70 _035_
*71 _036_
*72 _037_
*73 _038_
*74 _039_
*75 _040_
*76 _041_
*77 _042_
*78 _043_
*79 _044_
*80 _045_
*81 _046_
*82 _047_
*83 _048_
*84 _049_
*85 _050_
*86 _051_
*87 _052_
*88 _053_
*89 _054_
*90 _055_
*91 _056_
*92 _057_
*93 _058_
*94 _059_
*95 _060_
*96 _061_
*97 _062_
*98 _063_
*99 _064_
*100 _065_
*101 _066_
*102 _067_
*103 _068_
*104 _069_
*105 _070_
*106 _071_
*107 _072_
*108 _073_
*109 _074_
*110 _075_
*111 _076_
*112 _077_
*113 _078_
*114 _079_
*115 _080_
*116 _081_
*117 _082_
*118 _083_
*119 _084_
*120 _085_
*121 _086_
*122 _087_
*123 _088_
*124 _089_
*125 _090_
*126 _091_
*127 _092_
*128 _093_
*129 _094_
*130 _095_
*131 _096_
*132 _097_
*133 _098_
*134 _099_
*135 _100_
*136 _101_
*137 _102_
*138 _103_
*139 _104_
*140 _105_
*141 _106_
*142 _107_
*143 _108_
*144 _109_
*145 _110_
*146 _111_
*147 _112_
*148 _113_
*149 _114_
*150 _115_
*151 _116_
*152 _117_
*153 _118_
*154 _119_
*155 _120_
*156 _121_
*157 _122_
*158 _123_
*159 _124_
*160 _125_
*161 _126_
*162 _127_
*163 _128_
*164 _129_
*165 _130_
*166 _131_
*167 _132_
*168 _133_
*169 _134_
*170 _135_
*171 _136_
*172 _137_
*173 _138_
*174 _139_
*175 _140_
*176 _141_
*177 _142_
*178 _143_
*179 _144_
*180 _145_
*181 _146_
*182 _147_
*183 _148_
*184 _149_
*185 _150_
*186 _151_
*187 _152_
*188 _153_
*189 _154_
*190 _155_
*191 _156_
*192 _157_
*193 _158_
*194 _159_
*195 _160_
*196 _161_
*197 _162_
*198 _163_
*199 _164_
*200 _165_
*201 _166_
*202 _167_
*203 _168_
*204 _169_
*205 _170_
*206 _171_
*207 _172_
*208 _173_
*209 _174_
*210 _175_
*211 _176_
*212 _177_
*213 _178_
*214 _179_
*215 _180_
*216 _181_
*217 _182_
*218 _183_
*219 _184_
*220 _185_
*221 _186_
*222 _187_
*223 _188_
*224 _189_
*225 _190_
*226 _191_
*227 _192_
*228 _193_
*229 _194_
*230 _195_
*231 _196_
*232 _197_
*233 _198_
*234 _199_
*235 _200_
*236 _201_
*237 _202_
*238 _203_
*239 _204_
*240 _205_
*241 _206_
*242 _207_
*243 _208_
*244 _209_
*245 _210_
*246 _211_
*247 _212_
*248 _213_
*249 _214_
*250 _215_
*251 _216_
*252 _217_
*253 _218_
*254 _219_
*255 _220_
*256 _221_
*257 _222_
*258 _223_
*259 _224_
*260 _225_
*261 _226_
*262 _227_
*263 _228_
*264 _229_
*265 _230_
*266 mul_ll\.mul_ll\.pp1
*267 net1
*268 net10
*269 net11
*270 net12
*271 net13
*272 net14
*273 net15
*274 net16
*275 net17
*276 net18
*277 net19
*278 net2
*279 net20
*280 net21
*281 net22
*282 net23
*283 net24
*284 net25
*285 net26
*286 net27
*287 net28
*288 net29
*289 net3
*290 net30
*291 net31
*292 net32
*293 net33
*294 net34
*295 net35
*296 net36
*297 net37
*298 net38
*299 net39
*300 net4
*301 net40
*302 net41
*303 net42
*304 net43
*305 net44
*306 net45
*307 net46
*308 net47
*309 net48
*310 net49
*311 net5
*312 net50
*313 net51
*314 net52
*315 net53
*316 net54
*317 net55
*318 net56
*319 net57
*320 net58
*321 net59
*322 net6
*323 net60
*324 net61
*325 net69
*326 net7
*327 net70
*328 net71
*329 net72
*330 net73
*331 net74
*332 net75
*333 net76
*334 net77
*335 net78
*336 net79
*337 net8
*338 net9
*339 FILLER_0_109
*340 FILLER_0_113
*341 FILLER_0_121
*342 FILLER_0_125
*343 FILLER_0_133
*344 FILLER_0_141
*345 FILLER_0_149
*346 FILLER_0_15
*347 FILLER_0_161
*348 FILLER_0_167
*349 FILLER_0_169
*350 FILLER_0_181
*351 FILLER_0_189
*352 FILLER_0_197
*353 FILLER_0_202
*354 FILLER_0_210
*355 FILLER_0_222
*356 FILLER_0_225
*357 FILLER_0_237
*358 FILLER_0_249
*359 FILLER_0_253
*360 FILLER_0_261
*361 FILLER_0_266
*362 FILLER_0_27
*363 FILLER_0_278
*364 FILLER_0_281
*365 FILLER_0_29
*366 FILLER_0_293
*367 FILLER_0_3
*368 FILLER_0_301
*369 FILLER_0_309
*370 FILLER_0_321
*371 FILLER_0_333
*372 FILLER_0_337
*373 FILLER_0_349
*374 FILLER_0_361
*375 FILLER_0_365
*376 FILLER_0_377
*377 FILLER_0_389
*378 FILLER_0_393
*379 FILLER_0_405
*380 FILLER_0_41
*381 FILLER_0_53
*382 FILLER_0_57
*383 FILLER_0_69
*384 FILLER_0_81
*385 FILLER_0_85
*386 FILLER_0_97
*387 FILLER_10_109
*388 FILLER_10_121
*389 FILLER_10_133
*390 FILLER_10_139
*391 FILLER_10_141
*392 FILLER_10_15
*393 FILLER_10_153
*394 FILLER_10_165
*395 FILLER_10_177
*396 FILLER_10_189
*397 FILLER_10_195
*398 FILLER_10_197
*399 FILLER_10_209
*400 FILLER_10_221
*401 FILLER_10_233
*402 FILLER_10_245
*403 FILLER_10_251
*404 FILLER_10_253
*405 FILLER_10_265
*406 FILLER_10_27
*407 FILLER_10_277
*408 FILLER_10_289
*409 FILLER_10_29
*410 FILLER_10_3
*411 FILLER_10_301
*412 FILLER_10_307
*413 FILLER_10_309
*414 FILLER_10_321
*415 FILLER_10_333
*416 FILLER_10_345
*417 FILLER_10_357
*418 FILLER_10_363
*419 FILLER_10_365
*420 FILLER_10_377
*421 FILLER_10_389
*422 FILLER_10_401
*423 FILLER_10_41
*424 FILLER_10_53
*425 FILLER_10_65
*426 FILLER_10_77
*427 FILLER_10_83
*428 FILLER_10_85
*429 FILLER_10_97
*430 FILLER_11_105
*431 FILLER_11_111
*432 FILLER_11_113
*433 FILLER_11_125
*434 FILLER_11_137
*435 FILLER_11_149
*436 FILLER_11_15
*437 FILLER_11_161
*438 FILLER_11_167
*439 FILLER_11_169
*440 FILLER_11_181
*441 FILLER_11_193
*442 FILLER_11_205
*443 FILLER_11_217
*444 FILLER_11_223
*445 FILLER_11_225
*446 FILLER_11_237
*447 FILLER_11_249
*448 FILLER_11_261
*449 FILLER_11_27
*450 FILLER_11_273
*451 FILLER_11_279
*452 FILLER_11_281
*453 FILLER_11_293
*454 FILLER_11_3
*455 FILLER_11_305
*456 FILLER_11_317
*457 FILLER_11_329
*458 FILLER_11_335
*459 FILLER_11_337
*460 FILLER_11_349
*461 FILLER_11_361
*462 FILLER_11_373
*463 FILLER_11_385
*464 FILLER_11_39
*465 FILLER_11_391
*466 FILLER_11_393
*467 FILLER_11_405
*468 FILLER_11_51
*469 FILLER_11_55
*470 FILLER_11_57
*471 FILLER_11_69
*472 FILLER_11_81
*473 FILLER_11_93
*474 FILLER_12_109
*475 FILLER_12_121
*476 FILLER_12_133
*477 FILLER_12_139
*478 FILLER_12_141
*479 FILLER_12_15
*480 FILLER_12_153
*481 FILLER_12_165
*482 FILLER_12_177
*483 FILLER_12_189
*484 FILLER_12_195
*485 FILLER_12_197
*486 FILLER_12_209
*487 FILLER_12_224
*488 FILLER_12_237
*489 FILLER_12_249
*490 FILLER_12_253
*491 FILLER_12_265
*492 FILLER_12_27
*493 FILLER_12_277
*494 FILLER_12_289
*495 FILLER_12_29
*496 FILLER_12_3
*497 FILLER_12_301
*498 FILLER_12_307
*499 FILLER_12_309
*500 FILLER_12_321
*501 FILLER_12_333
*502 FILLER_12_345
*503 FILLER_12_357
*504 FILLER_12_363
*505 FILLER_12_365
*506 FILLER_12_377
*507 FILLER_12_389
*508 FILLER_12_401
*509 FILLER_12_41
*510 FILLER_12_53
*511 FILLER_12_65
*512 FILLER_12_77
*513 FILLER_12_83
*514 FILLER_12_85
*515 FILLER_12_97
*516 FILLER_13_105
*517 FILLER_13_111
*518 FILLER_13_113
*519 FILLER_13_125
*520 FILLER_13_137
*521 FILLER_13_149
*522 FILLER_13_15
*523 FILLER_13_161
*524 FILLER_13_167
*525 FILLER_13_179
*526 FILLER_13_191
*527 FILLER_13_203
*528 FILLER_13_225
*529 FILLER_13_250
*530 FILLER_13_263
*531 FILLER_13_27
*532 FILLER_13_275
*533 FILLER_13_279
*534 FILLER_13_288
*535 FILLER_13_3
*536 FILLER_13_300
*537 FILLER_13_312
*538 FILLER_13_324
*539 FILLER_13_337
*540 FILLER_13_349
*541 FILLER_13_361
*542 FILLER_13_373
*543 FILLER_13_385
*544 FILLER_13_39
*545 FILLER_13_391
*546 FILLER_13_393
*547 FILLER_13_405
*548 FILLER_13_51
*549 FILLER_13_55
*550 FILLER_13_57
*551 FILLER_13_69
*552 FILLER_13_81
*553 FILLER_13_93
*554 FILLER_14_109
*555 FILLER_14_121
*556 FILLER_14_133
*557 FILLER_14_139
*558 FILLER_14_141
*559 FILLER_14_15
*560 FILLER_14_153
*561 FILLER_14_178
*562 FILLER_14_182
*563 FILLER_14_189
*564 FILLER_14_195
*565 FILLER_14_197
*566 FILLER_14_205
*567 FILLER_14_248
*568 FILLER_14_253
*569 FILLER_14_268
*570 FILLER_14_27
*571 FILLER_14_280
*572 FILLER_14_29
*573 FILLER_14_292
*574 FILLER_14_3
*575 FILLER_14_304
*576 FILLER_14_309
*577 FILLER_14_316
*578 FILLER_14_328
*579 FILLER_14_340
*580 FILLER_14_352
*581 FILLER_14_365
*582 FILLER_14_377
*583 FILLER_14_389
*584 FILLER_14_401
*585 FILLER_14_41
*586 FILLER_14_53
*587 FILLER_14_65
*588 FILLER_14_77
*589 FILLER_14_83
*590 FILLER_14_85
*591 FILLER_14_97
*592 FILLER_15_105
*593 FILLER_15_111
*594 FILLER_15_113
*595 FILLER_15_123
*596 FILLER_15_129
*597 FILLER_15_142
*598 FILLER_15_15
*599 FILLER_15_150
*600 FILLER_15_158
*601 FILLER_15_166
*602 FILLER_15_169
*603 FILLER_15_177
*604 FILLER_15_185
*605 FILLER_15_197
*606 FILLER_15_209
*607 FILLER_15_217
*608 FILLER_15_225
*609 FILLER_15_241
*610 FILLER_15_253
*611 FILLER_15_257
*612 FILLER_15_27
*613 FILLER_15_275
*614 FILLER_15_279
*615 FILLER_15_281
*616 FILLER_15_293
*617 FILLER_15_3
*618 FILLER_15_311
*619 FILLER_15_324
*620 FILLER_15_337
*621 FILLER_15_349
*622 FILLER_15_361
*623 FILLER_15_373
*624 FILLER_15_385
*625 FILLER_15_39
*626 FILLER_15_391
*627 FILLER_15_393
*628 FILLER_15_405
*629 FILLER_15_51
*630 FILLER_15_55
*631 FILLER_15_57
*632 FILLER_15_69
*633 FILLER_15_81
*634 FILLER_15_93
*635 FILLER_16_109
*636 FILLER_16_138
*637 FILLER_16_141
*638 FILLER_16_145
*639 FILLER_16_15
*640 FILLER_16_165
*641 FILLER_16_177
*642 FILLER_16_189
*643 FILLER_16_195
*644 FILLER_16_197
*645 FILLER_16_209
*646 FILLER_16_221
*647 FILLER_16_232
*648 FILLER_16_244
*649 FILLER_16_253
*650 FILLER_16_265
*651 FILLER_16_27
*652 FILLER_16_277
*653 FILLER_16_289
*654 FILLER_16_29
*655 FILLER_16_3
*656 FILLER_16_318
*657 FILLER_16_330
*658 FILLER_16_342
*659 FILLER_16_354
*660 FILLER_16_362
*661 FILLER_16_365
*662 FILLER_16_377
*663 FILLER_16_389
*664 FILLER_16_401
*665 FILLER_16_41
*666 FILLER_16_53
*667 FILLER_16_65
*668 FILLER_16_77
*669 FILLER_16_83
*670 FILLER_16_85
*671 FILLER_16_97
*672 FILLER_17_105
*673 FILLER_17_111
*674 FILLER_17_113
*675 FILLER_17_125
*676 FILLER_17_135
*677 FILLER_17_143
*678 FILLER_17_15
*679 FILLER_17_157
*680 FILLER_17_167
*681 FILLER_17_174
*682 FILLER_17_186
*683 FILLER_17_198
*684 FILLER_17_210
*685 FILLER_17_222
*686 FILLER_17_225
*687 FILLER_17_237
*688 FILLER_17_249
*689 FILLER_17_261
*690 FILLER_17_27
*691 FILLER_17_273
*692 FILLER_17_279
*693 FILLER_17_281
*694 FILLER_17_287
*695 FILLER_17_299
*696 FILLER_17_3
*697 FILLER_17_308
*698 FILLER_17_320
*699 FILLER_17_332
*700 FILLER_17_337
*701 FILLER_17_349
*702 FILLER_17_361
*703 FILLER_17_373
*704 FILLER_17_385
*705 FILLER_17_39
*706 FILLER_17_391
*707 FILLER_17_393
*708 FILLER_17_397
*709 FILLER_17_51
*710 FILLER_17_55
*711 FILLER_17_57
*712 FILLER_17_69
*713 FILLER_17_81
*714 FILLER_17_93
*715 FILLER_18_109
*716 FILLER_18_121
*717 FILLER_18_131
*718 FILLER_18_139
*719 FILLER_18_141
*720 FILLER_18_15
*721 FILLER_18_151
*722 FILLER_18_163
*723 FILLER_18_175
*724 FILLER_18_187
*725 FILLER_18_195
*726 FILLER_18_197
*727 FILLER_18_209
*728 FILLER_18_221
*729 FILLER_18_233
*730 FILLER_18_245
*731 FILLER_18_251
*732 FILLER_18_253
*733 FILLER_18_265
*734 FILLER_18_27
*735 FILLER_18_277
*736 FILLER_18_29
*737 FILLER_18_293
*738 FILLER_18_3
*739 FILLER_18_305
*740 FILLER_18_309
*741 FILLER_18_321
*742 FILLER_18_333
*743 FILLER_18_345
*744 FILLER_18_357
*745 FILLER_18_363
*746 FILLER_18_365
*747 FILLER_18_377
*748 FILLER_18_389
*749 FILLER_18_401
*750 FILLER_18_41
*751 FILLER_18_53
*752 FILLER_18_65
*753 FILLER_18_77
*754 FILLER_18_83
*755 FILLER_18_85
*756 FILLER_18_97
*757 FILLER_19_105
*758 FILLER_19_111
*759 FILLER_19_113
*760 FILLER_19_125
*761 FILLER_19_137
*762 FILLER_19_149
*763 FILLER_19_15
*764 FILLER_19_161
*765 FILLER_19_167
*766 FILLER_19_177
*767 FILLER_19_191
*768 FILLER_19_195
*769 FILLER_19_199
*770 FILLER_19_211
*771 FILLER_19_223
*772 FILLER_19_225
*773 FILLER_19_237
*774 FILLER_19_249
*775 FILLER_19_257
*776 FILLER_19_269
*777 FILLER_19_27
*778 FILLER_19_277
*779 FILLER_19_281
*780 FILLER_19_287
*781 FILLER_19_299
*782 FILLER_19_3
*783 FILLER_19_311
*784 FILLER_19_323
*785 FILLER_19_327
*786 FILLER_19_331
*787 FILLER_19_335
*788 FILLER_19_346
*789 FILLER_19_350
*790 FILLER_19_362
*791 FILLER_19_374
*792 FILLER_19_386
*793 FILLER_19_39
*794 FILLER_19_393
*795 FILLER_19_51
*796 FILLER_19_55
*797 FILLER_19_57
*798 FILLER_19_69
*799 FILLER_19_81
*800 FILLER_19_93
*801 FILLER_1_105
*802 FILLER_1_111
*803 FILLER_1_113
*804 FILLER_1_125
*805 FILLER_1_137
*806 FILLER_1_149
*807 FILLER_1_15
*808 FILLER_1_161
*809 FILLER_1_167
*810 FILLER_1_169
*811 FILLER_1_181
*812 FILLER_1_193
*813 FILLER_1_205
*814 FILLER_1_217
*815 FILLER_1_223
*816 FILLER_1_225
*817 FILLER_1_237
*818 FILLER_1_249
*819 FILLER_1_261
*820 FILLER_1_27
*821 FILLER_1_273
*822 FILLER_1_279
*823 FILLER_1_281
*824 FILLER_1_293
*825 FILLER_1_3
*826 FILLER_1_305
*827 FILLER_1_317
*828 FILLER_1_329
*829 FILLER_1_335
*830 FILLER_1_337
*831 FILLER_1_349
*832 FILLER_1_361
*833 FILLER_1_373
*834 FILLER_1_385
*835 FILLER_1_39
*836 FILLER_1_391
*837 FILLER_1_393
*838 FILLER_1_405
*839 FILLER_1_51
*840 FILLER_1_55
*841 FILLER_1_57
*842 FILLER_1_69
*843 FILLER_1_81
*844 FILLER_1_93
*845 FILLER_20_109
*846 FILLER_20_121
*847 FILLER_20_133
*848 FILLER_20_139
*849 FILLER_20_141
*850 FILLER_20_15
*851 FILLER_20_153
*852 FILLER_20_165
*853 FILLER_20_177
*854 FILLER_20_189
*855 FILLER_20_195
*856 FILLER_20_210
*857 FILLER_20_222
*858 FILLER_20_234
*859 FILLER_20_246
*860 FILLER_20_253
*861 FILLER_20_265
*862 FILLER_20_27
*863 FILLER_20_277
*864 FILLER_20_289
*865 FILLER_20_29
*866 FILLER_20_298
*867 FILLER_20_3
*868 FILLER_20_306
*869 FILLER_20_309
*870 FILLER_20_321
*871 FILLER_20_332
*872 FILLER_20_337
*873 FILLER_20_354
*874 FILLER_20_362
*875 FILLER_20_365
*876 FILLER_20_377
*877 FILLER_20_389
*878 FILLER_20_401
*879 FILLER_20_41
*880 FILLER_20_53
*881 FILLER_20_65
*882 FILLER_20_77
*883 FILLER_20_83
*884 FILLER_20_85
*885 FILLER_20_97
*886 FILLER_21_105
*887 FILLER_21_111
*888 FILLER_21_113
*889 FILLER_21_125
*890 FILLER_21_137
*891 FILLER_21_149
*892 FILLER_21_15
*893 FILLER_21_161
*894 FILLER_21_167
*895 FILLER_21_169
*896 FILLER_21_181
*897 FILLER_21_193
*898 FILLER_21_205
*899 FILLER_21_217
*900 FILLER_21_223
*901 FILLER_21_232
*902 FILLER_21_240
*903 FILLER_21_248
*904 FILLER_21_260
*905 FILLER_21_27
*906 FILLER_21_272
*907 FILLER_21_279
*908 FILLER_21_281
*909 FILLER_21_293
*910 FILLER_21_3
*911 FILLER_21_305
*912 FILLER_21_318
*913 FILLER_21_334
*914 FILLER_21_337
*915 FILLER_21_348
*916 FILLER_21_360
*917 FILLER_21_372
*918 FILLER_21_384
*919 FILLER_21_39
*920 FILLER_21_393
*921 FILLER_21_401
*922 FILLER_21_51
*923 FILLER_21_55
*924 FILLER_21_57
*925 FILLER_21_69
*926 FILLER_21_81
*927 FILLER_21_93
*928 FILLER_22_109
*929 FILLER_22_121
*930 FILLER_22_133
*931 FILLER_22_139
*932 FILLER_22_147
*933 FILLER_22_15
*934 FILLER_22_159
*935 FILLER_22_171
*936 FILLER_22_183
*937 FILLER_22_195
*938 FILLER_22_197
*939 FILLER_22_209
*940 FILLER_22_237
*941 FILLER_22_248
*942 FILLER_22_253
*943 FILLER_22_259
*944 FILLER_22_27
*945 FILLER_22_271
*946 FILLER_22_288
*947 FILLER_22_29
*948 FILLER_22_3
*949 FILLER_22_300
*950 FILLER_22_309
*951 FILLER_22_321
*952 FILLER_22_333
*953 FILLER_22_345
*954 FILLER_22_357
*955 FILLER_22_363
*956 FILLER_22_365
*957 FILLER_22_377
*958 FILLER_22_389
*959 FILLER_22_401
*960 FILLER_22_41
*961 FILLER_22_53
*962 FILLER_22_65
*963 FILLER_22_77
*964 FILLER_22_83
*965 FILLER_22_85
*966 FILLER_22_97
*967 FILLER_23_105
*968 FILLER_23_111
*969 FILLER_23_113
*970 FILLER_23_142
*971 FILLER_23_15
*972 FILLER_23_154
*973 FILLER_23_166
*974 FILLER_23_169
*975 FILLER_23_181
*976 FILLER_23_193
*977 FILLER_23_205
*978 FILLER_23_217
*979 FILLER_23_223
*980 FILLER_23_232
*981 FILLER_23_244
*982 FILLER_23_256
*983 FILLER_23_268
*984 FILLER_23_27
*985 FILLER_23_281
*986 FILLER_23_289
*987 FILLER_23_3
*988 FILLER_23_321
*989 FILLER_23_333
*990 FILLER_23_337
*991 FILLER_23_349
*992 FILLER_23_361
*993 FILLER_23_373
*994 FILLER_23_385
*995 FILLER_23_39
*996 FILLER_23_391
*997 FILLER_23_393
*998 FILLER_23_405
*999 FILLER_23_51
*1000 FILLER_23_55
*1001 FILLER_23_57
*1002 FILLER_23_69
*1003 FILLER_23_81
*1004 FILLER_23_93
*1005 FILLER_24_109
*1006 FILLER_24_121
*1007 FILLER_24_125
*1008 FILLER_24_147
*1009 FILLER_24_15
*1010 FILLER_24_159
*1011 FILLER_24_176
*1012 FILLER_24_188
*1013 FILLER_24_197
*1014 FILLER_24_209
*1015 FILLER_24_221
*1016 FILLER_24_233
*1017 FILLER_24_250
*1018 FILLER_24_256
*1019 FILLER_24_268
*1020 FILLER_24_27
*1021 FILLER_24_280
*1022 FILLER_24_29
*1023 FILLER_24_292
*1024 FILLER_24_3
*1025 FILLER_24_304
*1026 FILLER_24_309
*1027 FILLER_24_321
*1028 FILLER_24_333
*1029 FILLER_24_345
*1030 FILLER_24_357
*1031 FILLER_24_363
*1032 FILLER_24_365
*1033 FILLER_24_377
*1034 FILLER_24_389
*1035 FILLER_24_397
*1036 FILLER_24_41
*1037 FILLER_24_53
*1038 FILLER_24_65
*1039 FILLER_24_77
*1040 FILLER_24_83
*1041 FILLER_24_85
*1042 FILLER_24_97
*1043 FILLER_25_105
*1044 FILLER_25_111
*1045 FILLER_25_113
*1046 FILLER_25_125
*1047 FILLER_25_137
*1048 FILLER_25_149
*1049 FILLER_25_15
*1050 FILLER_25_161
*1051 FILLER_25_167
*1052 FILLER_25_169
*1053 FILLER_25_181
*1054 FILLER_25_219
*1055 FILLER_25_223
*1056 FILLER_25_225
*1057 FILLER_25_237
*1058 FILLER_25_243
*1059 FILLER_25_261
*1060 FILLER_25_27
*1061 FILLER_25_273
*1062 FILLER_25_279
*1063 FILLER_25_281
*1064 FILLER_25_293
*1065 FILLER_25_3
*1066 FILLER_25_305
*1067 FILLER_25_317
*1068 FILLER_25_329
*1069 FILLER_25_335
*1070 FILLER_25_337
*1071 FILLER_25_349
*1072 FILLER_25_361
*1073 FILLER_25_373
*1074 FILLER_25_385
*1075 FILLER_25_39
*1076 FILLER_25_391
*1077 FILLER_25_393
*1078 FILLER_25_401
*1079 FILLER_25_51
*1080 FILLER_25_55
*1081 FILLER_25_57
*1082 FILLER_25_69
*1083 FILLER_25_81
*1084 FILLER_25_93
*1085 FILLER_26_109
*1086 FILLER_26_121
*1087 FILLER_26_148
*1088 FILLER_26_15
*1089 FILLER_26_160
*1090 FILLER_26_172
*1091 FILLER_26_184
*1092 FILLER_26_197
*1093 FILLER_26_207
*1094 FILLER_26_219
*1095 FILLER_26_231
*1096 FILLER_26_243
*1097 FILLER_26_251
*1098 FILLER_26_253
*1099 FILLER_26_265
*1100 FILLER_26_27
*1101 FILLER_26_277
*1102 FILLER_26_289
*1103 FILLER_26_29
*1104 FILLER_26_297
*1105 FILLER_26_3
*1106 FILLER_26_301
*1107 FILLER_26_307
*1108 FILLER_26_309
*1109 FILLER_26_315
*1110 FILLER_26_340
*1111 FILLER_26_352
*1112 FILLER_26_365
*1113 FILLER_26_377
*1114 FILLER_26_389
*1115 FILLER_26_393
*1116 FILLER_26_405
*1117 FILLER_26_41
*1118 FILLER_26_53
*1119 FILLER_26_65
*1120 FILLER_26_77
*1121 FILLER_26_83
*1122 FILLER_26_85
*1123 FILLER_26_97
*1124 FILLER_27_105
*1125 FILLER_27_111
*1126 FILLER_27_113
*1127 FILLER_27_125
*1128 FILLER_27_137
*1129 FILLER_27_141
*1130 FILLER_27_149
*1131 FILLER_27_15
*1132 FILLER_27_161
*1133 FILLER_27_167
*1134 FILLER_27_169
*1135 FILLER_27_181
*1136 FILLER_27_193
*1137 FILLER_27_199
*1138 FILLER_27_213
*1139 FILLER_27_221
*1140 FILLER_27_225
*1141 FILLER_27_237
*1142 FILLER_27_258
*1143 FILLER_27_27
*1144 FILLER_27_270
*1145 FILLER_27_278
*1146 FILLER_27_281
*1147 FILLER_27_288
*1148 FILLER_27_3
*1149 FILLER_27_316
*1150 FILLER_27_328
*1151 FILLER_27_337
*1152 FILLER_27_349
*1153 FILLER_27_361
*1154 FILLER_27_373
*1155 FILLER_27_385
*1156 FILLER_27_39
*1157 FILLER_27_391
*1158 FILLER_27_393
*1159 FILLER_27_405
*1160 FILLER_27_51
*1161 FILLER_27_55
*1162 FILLER_27_57
*1163 FILLER_27_69
*1164 FILLER_27_81
*1165 FILLER_27_93
*1166 FILLER_28_109
*1167 FILLER_28_121
*1168 FILLER_28_133
*1169 FILLER_28_139
*1170 FILLER_28_141
*1171 FILLER_28_15
*1172 FILLER_28_153
*1173 FILLER_28_165
*1174 FILLER_28_177
*1175 FILLER_28_189
*1176 FILLER_28_195
*1177 FILLER_28_197
*1178 FILLER_28_209
*1179 FILLER_28_221
*1180 FILLER_28_233
*1181 FILLER_28_245
*1182 FILLER_28_251
*1183 FILLER_28_264
*1184 FILLER_28_27
*1185 FILLER_28_276
*1186 FILLER_28_288
*1187 FILLER_28_29
*1188 FILLER_28_3
*1189 FILLER_28_300
*1190 FILLER_28_309
*1191 FILLER_28_321
*1192 FILLER_28_329
*1193 FILLER_28_337
*1194 FILLER_28_349
*1195 FILLER_28_361
*1196 FILLER_28_365
*1197 FILLER_28_377
*1198 FILLER_28_389
*1199 FILLER_28_401
*1200 FILLER_28_41
*1201 FILLER_28_53
*1202 FILLER_28_65
*1203 FILLER_28_77
*1204 FILLER_28_83
*1205 FILLER_28_85
*1206 FILLER_28_97
*1207 FILLER_29_105
*1208 FILLER_29_111
*1209 FILLER_29_113
*1210 FILLER_29_125
*1211 FILLER_29_137
*1212 FILLER_29_149
*1213 FILLER_29_15
*1214 FILLER_29_161
*1215 FILLER_29_167
*1216 FILLER_29_169
*1217 FILLER_29_181
*1218 FILLER_29_193
*1219 FILLER_29_205
*1220 FILLER_29_217
*1221 FILLER_29_223
*1222 FILLER_29_225
*1223 FILLER_29_231
*1224 FILLER_29_243
*1225 FILLER_29_255
*1226 FILLER_29_267
*1227 FILLER_29_27
*1228 FILLER_29_279
*1229 FILLER_29_281
*1230 FILLER_29_293
*1231 FILLER_29_3
*1232 FILLER_29_305
*1233 FILLER_29_317
*1234 FILLER_29_329
*1235 FILLER_29_335
*1236 FILLER_29_337
*1237 FILLER_29_349
*1238 FILLER_29_361
*1239 FILLER_29_373
*1240 FILLER_29_385
*1241 FILLER_29_39
*1242 FILLER_29_391
*1243 FILLER_29_393
*1244 FILLER_29_401
*1245 FILLER_29_51
*1246 FILLER_29_55
*1247 FILLER_29_57
*1248 FILLER_29_69
*1249 FILLER_29_81
*1250 FILLER_29_93
*1251 FILLER_2_109
*1252 FILLER_2_121
*1253 FILLER_2_133
*1254 FILLER_2_139
*1255 FILLER_2_141
*1256 FILLER_2_15
*1257 FILLER_2_153
*1258 FILLER_2_165
*1259 FILLER_2_177
*1260 FILLER_2_189
*1261 FILLER_2_197
*1262 FILLER_2_209
*1263 FILLER_2_237
*1264 FILLER_2_249
*1265 FILLER_2_256
*1266 FILLER_2_262
*1267 FILLER_2_27
*1268 FILLER_2_274
*1269 FILLER_2_286
*1270 FILLER_2_29
*1271 FILLER_2_298
*1272 FILLER_2_3
*1273 FILLER_2_306
*1274 FILLER_2_309
*1275 FILLER_2_321
*1276 FILLER_2_333
*1277 FILLER_2_345
*1278 FILLER_2_357
*1279 FILLER_2_363
*1280 FILLER_2_365
*1281 FILLER_2_377
*1282 FILLER_2_389
*1283 FILLER_2_401
*1284 FILLER_2_41
*1285 FILLER_2_53
*1286 FILLER_2_65
*1287 FILLER_2_77
*1288 FILLER_2_83
*1289 FILLER_2_85
*1290 FILLER_2_97
*1291 FILLER_30_104
*1292 FILLER_30_116
*1293 FILLER_30_128
*1294 FILLER_30_141
*1295 FILLER_30_15
*1296 FILLER_30_153
*1297 FILLER_30_165
*1298 FILLER_30_169
*1299 FILLER_30_177
*1300 FILLER_30_189
*1301 FILLER_30_195
*1302 FILLER_30_197
*1303 FILLER_30_209
*1304 FILLER_30_221
*1305 FILLER_30_233
*1306 FILLER_30_245
*1307 FILLER_30_251
*1308 FILLER_30_253
*1309 FILLER_30_265
*1310 FILLER_30_27
*1311 FILLER_30_277
*1312 FILLER_30_289
*1313 FILLER_30_29
*1314 FILLER_30_3
*1315 FILLER_30_301
*1316 FILLER_30_307
*1317 FILLER_30_309
*1318 FILLER_30_313
*1319 FILLER_30_317
*1320 FILLER_30_323
*1321 FILLER_30_331
*1322 FILLER_30_343
*1323 FILLER_30_355
*1324 FILLER_30_363
*1325 FILLER_30_365
*1326 FILLER_30_377
*1327 FILLER_30_389
*1328 FILLER_30_41
*1329 FILLER_30_53
*1330 FILLER_30_65
*1331 FILLER_30_92
*1332 FILLER_31_108
*1333 FILLER_31_113
*1334 FILLER_31_138
*1335 FILLER_31_15
*1336 FILLER_31_150
*1337 FILLER_31_158
*1338 FILLER_31_182
*1339 FILLER_31_190
*1340 FILLER_31_203
*1341 FILLER_31_212
*1342 FILLER_31_236
*1343 FILLER_31_248
*1344 FILLER_31_260
*1345 FILLER_31_27
*1346 FILLER_31_272
*1347 FILLER_31_281
*1348 FILLER_31_293
*1349 FILLER_31_3
*1350 FILLER_31_305
*1351 FILLER_31_309
*1352 FILLER_31_331
*1353 FILLER_31_335
*1354 FILLER_31_337
*1355 FILLER_31_349
*1356 FILLER_31_361
*1357 FILLER_31_373
*1358 FILLER_31_385
*1359 FILLER_31_39
*1360 FILLER_31_391
*1361 FILLER_31_393
*1362 FILLER_31_405
*1363 FILLER_31_51
*1364 FILLER_31_55
*1365 FILLER_31_57
*1366 FILLER_31_69
*1367 FILLER_31_84
*1368 FILLER_31_96
*1369 FILLER_32_115
*1370 FILLER_32_122
*1371 FILLER_32_134
*1372 FILLER_32_141
*1373 FILLER_32_15
*1374 FILLER_32_153
*1375 FILLER_32_161
*1376 FILLER_32_171
*1377 FILLER_32_183
*1378 FILLER_32_195
*1379 FILLER_32_197
*1380 FILLER_32_216
*1381 FILLER_32_228
*1382 FILLER_32_240
*1383 FILLER_32_253
*1384 FILLER_32_265
*1385 FILLER_32_27
*1386 FILLER_32_277
*1387 FILLER_32_289
*1388 FILLER_32_29
*1389 FILLER_32_3
*1390 FILLER_32_301
*1391 FILLER_32_307
*1392 FILLER_32_309
*1393 FILLER_32_321
*1394 FILLER_32_336
*1395 FILLER_32_348
*1396 FILLER_32_360
*1397 FILLER_32_365
*1398 FILLER_32_377
*1399 FILLER_32_389
*1400 FILLER_32_401
*1401 FILLER_32_41
*1402 FILLER_32_45
*1403 FILLER_32_49
*1404 FILLER_32_61
*1405 FILLER_32_67
*1406 FILLER_32_78
*1407 FILLER_32_83
*1408 FILLER_32_96
*1409 FILLER_33_102
*1410 FILLER_33_108
*1411 FILLER_33_113
*1412 FILLER_33_132
*1413 FILLER_33_144
*1414 FILLER_33_15
*1415 FILLER_33_152
*1416 FILLER_33_164
*1417 FILLER_33_169
*1418 FILLER_33_181
*1419 FILLER_33_193
*1420 FILLER_33_205
*1421 FILLER_33_217
*1422 FILLER_33_223
*1423 FILLER_33_225
*1424 FILLER_33_241
*1425 FILLER_33_251
*1426 FILLER_33_27
*1427 FILLER_33_273
*1428 FILLER_33_279
*1429 FILLER_33_281
*1430 FILLER_33_287
*1431 FILLER_33_291
*1432 FILLER_33_3
*1433 FILLER_33_310
*1434 FILLER_33_322
*1435 FILLER_33_334
*1436 FILLER_33_337
*1437 FILLER_33_349
*1438 FILLER_33_361
*1439 FILLER_33_373
*1440 FILLER_33_385
*1441 FILLER_33_39
*1442 FILLER_33_391
*1443 FILLER_33_393
*1444 FILLER_33_405
*1445 FILLER_33_66
*1446 FILLER_33_78
*1447 FILLER_33_90
*1448 FILLER_34_102
*1449 FILLER_34_114
*1450 FILLER_34_137
*1451 FILLER_34_141
*1452 FILLER_34_149
*1453 FILLER_34_15
*1454 FILLER_34_159
*1455 FILLER_34_171
*1456 FILLER_34_183
*1457 FILLER_34_195
*1458 FILLER_34_197
*1459 FILLER_34_209
*1460 FILLER_34_221
*1461 FILLER_34_233
*1462 FILLER_34_245
*1463 FILLER_34_251
*1464 FILLER_34_253
*1465 FILLER_34_265
*1466 FILLER_34_27
*1467 FILLER_34_276
*1468 FILLER_34_282
*1469 FILLER_34_290
*1470 FILLER_34_3
*1471 FILLER_34_302
*1472 FILLER_34_309
*1473 FILLER_34_321
*1474 FILLER_34_333
*1475 FILLER_34_34
*1476 FILLER_34_345
*1477 FILLER_34_357
*1478 FILLER_34_363
*1479 FILLER_34_365
*1480 FILLER_34_377
*1481 FILLER_34_389
*1482 FILLER_34_401
*1483 FILLER_34_46
*1484 FILLER_34_58
*1485 FILLER_34_70
*1486 FILLER_34_78
*1487 FILLER_34_90
*1488 FILLER_35_111
*1489 FILLER_35_113
*1490 FILLER_35_125
*1491 FILLER_35_137
*1492 FILLER_35_149
*1493 FILLER_35_15
*1494 FILLER_35_165
*1495 FILLER_35_169
*1496 FILLER_35_181
*1497 FILLER_35_193
*1498 FILLER_35_20
*1499 FILLER_35_205
*1500 FILLER_35_217
*1501 FILLER_35_223
*1502 FILLER_35_225
*1503 FILLER_35_231
*1504 FILLER_35_241
*1505 FILLER_35_247
*1506 FILLER_35_251
*1507 FILLER_35_26
*1508 FILLER_35_263
*1509 FILLER_35_275
*1510 FILLER_35_279
*1511 FILLER_35_281
*1512 FILLER_35_293
*1513 FILLER_35_305
*1514 FILLER_35_31
*1515 FILLER_35_317
*1516 FILLER_35_329
*1517 FILLER_35_335
*1518 FILLER_35_337
*1519 FILLER_35_349
*1520 FILLER_35_361
*1521 FILLER_35_373
*1522 FILLER_35_385
*1523 FILLER_35_391
*1524 FILLER_35_393
*1525 FILLER_35_405
*1526 FILLER_35_43
*1527 FILLER_35_55
*1528 FILLER_35_63
*1529 FILLER_35_75
*1530 FILLER_35_87
*1531 FILLER_35_9
*1532 FILLER_35_99
*1533 FILLER_36_109
*1534 FILLER_36_121
*1535 FILLER_36_13
*1536 FILLER_36_133
*1537 FILLER_36_139
*1538 FILLER_36_141
*1539 FILLER_36_153
*1540 FILLER_36_165
*1541 FILLER_36_177
*1542 FILLER_36_189
*1543 FILLER_36_195
*1544 FILLER_36_197
*1545 FILLER_36_209
*1546 FILLER_36_221
*1547 FILLER_36_233
*1548 FILLER_36_245
*1549 FILLER_36_251
*1550 FILLER_36_253
*1551 FILLER_36_26
*1552 FILLER_36_265
*1553 FILLER_36_277
*1554 FILLER_36_289
*1555 FILLER_36_29
*1556 FILLER_36_301
*1557 FILLER_36_307
*1558 FILLER_36_309
*1559 FILLER_36_321
*1560 FILLER_36_333
*1561 FILLER_36_345
*1562 FILLER_36_357
*1563 FILLER_36_363
*1564 FILLER_36_365
*1565 FILLER_36_377
*1566 FILLER_36_389
*1567 FILLER_36_41
*1568 FILLER_36_53
*1569 FILLER_36_65
*1570 FILLER_36_77
*1571 FILLER_36_81
*1572 FILLER_36_85
*1573 FILLER_36_9
*1574 FILLER_36_97
*1575 FILLER_37_101
*1576 FILLER_37_109
*1577 FILLER_37_113
*1578 FILLER_37_121
*1579 FILLER_37_128
*1580 FILLER_37_140
*1581 FILLER_37_152
*1582 FILLER_37_164
*1583 FILLER_37_179
*1584 FILLER_37_191
*1585 FILLER_37_203
*1586 FILLER_37_215
*1587 FILLER_37_223
*1588 FILLER_37_225
*1589 FILLER_37_237
*1590 FILLER_37_241
*1591 FILLER_37_25
*1592 FILLER_37_255
*1593 FILLER_37_267
*1594 FILLER_37_279
*1595 FILLER_37_281
*1596 FILLER_37_289
*1597 FILLER_37_302
*1598 FILLER_37_314
*1599 FILLER_37_326
*1600 FILLER_37_334
*1601 FILLER_37_337
*1602 FILLER_37_349
*1603 FILLER_37_361
*1604 FILLER_37_37
*1605 FILLER_37_373
*1606 FILLER_37_385
*1607 FILLER_37_391
*1608 FILLER_37_393
*1609 FILLER_37_405
*1610 FILLER_37_49
*1611 FILLER_37_55
*1612 FILLER_37_6
*1613 FILLER_37_65
*1614 FILLER_37_77
*1615 FILLER_37_89
*1616 FILLER_38_109
*1617 FILLER_38_121
*1618 FILLER_38_127
*1619 FILLER_38_139
*1620 FILLER_38_141
*1621 FILLER_38_15
*1622 FILLER_38_153
*1623 FILLER_38_165
*1624 FILLER_38_178
*1625 FILLER_38_190
*1626 FILLER_38_197
*1627 FILLER_38_209
*1628 FILLER_38_221
*1629 FILLER_38_233
*1630 FILLER_38_247
*1631 FILLER_38_251
*1632 FILLER_38_253
*1633 FILLER_38_26
*1634 FILLER_38_280
*1635 FILLER_38_29
*1636 FILLER_38_292
*1637 FILLER_38_3
*1638 FILLER_38_307
*1639 FILLER_38_309
*1640 FILLER_38_321
*1641 FILLER_38_333
*1642 FILLER_38_345
*1643 FILLER_38_357
*1644 FILLER_38_363
*1645 FILLER_38_365
*1646 FILLER_38_377
*1647 FILLER_38_389
*1648 FILLER_38_401
*1649 FILLER_38_41
*1650 FILLER_38_53
*1651 FILLER_38_65
*1652 FILLER_38_69
*1653 FILLER_38_74
*1654 FILLER_38_82
*1655 FILLER_38_85
*1656 FILLER_38_97
*1657 FILLER_39_103
*1658 FILLER_39_111
*1659 FILLER_39_113
*1660 FILLER_39_133
*1661 FILLER_39_145
*1662 FILLER_39_157
*1663 FILLER_39_165
*1664 FILLER_39_169
*1665 FILLER_39_175
*1666 FILLER_39_183
*1667 FILLER_39_19
*1668 FILLER_39_195
*1669 FILLER_39_207
*1670 FILLER_39_215
*1671 FILLER_39_219
*1672 FILLER_39_223
*1673 FILLER_39_225
*1674 FILLER_39_237
*1675 FILLER_39_249
*1676 FILLER_39_261
*1677 FILLER_39_273
*1678 FILLER_39_279
*1679 FILLER_39_281
*1680 FILLER_39_286
*1681 FILLER_39_298
*1682 FILLER_39_31
*1683 FILLER_39_328
*1684 FILLER_39_337
*1685 FILLER_39_349
*1686 FILLER_39_361
*1687 FILLER_39_373
*1688 FILLER_39_385
*1689 FILLER_39_391
*1690 FILLER_39_393
*1691 FILLER_39_405
*1692 FILLER_39_43
*1693 FILLER_39_55
*1694 FILLER_39_57
*1695 FILLER_39_68
*1696 FILLER_39_7
*1697 FILLER_39_80
*1698 FILLER_39_91
*1699 FILLER_3_105