*SPEF "ieee 1481-1999"
*DESIGN "mult4_SARSA_RUIDO_e9_SARSA_RUIDO_e9_SARSA_RUIDO_e9_SARSA_RUIDO_e9"
*DATE "18:35:52 Tuesday September 16, 2025"
*VENDOR "The OpenROAD Project"
*PROGRAM "OpenROAD"
*VERSION "edf00dff99f6c40d67a30c0e22a8191c5d2ed9d6"
*DESIGN_FLOW "NAME_SCOPE LOCAL" "PIN_CAP NONE"
*DIVIDER /
*DELIMITER :
*BUS_DELIMITER []
*T_UNIT 1 NS
*C_UNIT 1 PF
*R_UNIT 1 OHM
*L_UNIT 1 HENRY

*NAME_MAP
*1 A[0]
*2 A[1]
*3 A[2]
*4 A[3]
*5 B[0]
*6 B[1]
*7 B[2]
*8 B[3]
*9 P[0]
*10 P[1]
*11 P[2]
*12 P[3]
*13 P[4]
*14 P[5]
*15 P[6]
*16 P[7]
*19 _00_
*20 _01_
*21 _02_
*22 _03_
*23 _04_
*24 _05_
*25 _06_
*26 _07_
*27 _08_
*28 _09_
*29 _10_
*30 _11_
*31 _12_
*32 _13_
*33 _14_
*34 _15_
*35 _16_
*36 _17_
*37 _18_
*38 _19_
*39 _20_
*40 _21_
*41 _22_
*42 _23_
*43 _24_
*44 _25_
*45 _26_
*46 _27_
*47 _28_
*48 _29_
*49 _30_
*50 _31_
*51 _32_
*52 _33_
*53 _34_
*54 _35_
*55 _36_
*56 _37_
*57 _38_
*58 _39_
*59 _40_
*60 _41_
*61 _42_
*62 _43_
*63 _44_
*64 _45_
*65 net1
*66 net10
*67 net11
*68 net12
*69 net13
*70 net14
*71 net15
*72 net16
*73 net2
*74 net3
*75 net4
*76 net5
*77 net6
*78 net7
*79 net8
*80 net9
*81 FILLER_0_15
*82 FILLER_0_23
*83 FILLER_0_3
*84 FILLER_0_38
*85 FILLER_0_51
*86 FILLER_0_57
*87 FILLER_0_62
*88 FILLER_0_70
*89 FILLER_0_78
*90 FILLER_1_15
*91 FILLER_1_3
*92 FILLER_1_31
*93 FILLER_1_41
*94 FILLER_2_16
*95 FILLER_2_29
*96 FILLER_2_3
*97 FILLER_2_42
*98 FILLER_2_46
*99 FILLER_2_52
*100 FILLER_2_64
*101 FILLER_2_73
*102 FILLER_2_77
*103 FILLER_3_24
*104 FILLER_3_3
*105 FILLER_3_32
*106 FILLER_4_17
*107 FILLER_4_25
*108 FILLER_4_29
*109 FILLER_4_3
*110 FILLER_4_41
*111 FILLER_4_53
*112 FILLER_4_65
*113 FILLER_4_9
*114 FILLER_5_11
*115 FILLER_5_19
*116 FILLER_5_27
*117 FILLER_5_40
*118 FILLER_5_52
*119 FILLER_5_63
*120 FILLER_5_71
*121 FILLER_6_10
*122 FILLER_6_17
*123 FILLER_6_24
*124 FILLER_6_29
*125 FILLER_6_46
*126 FILLER_6_60
*127 FILLER_7_15
*128 FILLER_7_27
*129 FILLER_7_3
*130 FILLER_7_38
*131 FILLER_7_50
*132 FILLER_7_57
*133 FILLER_7_65
*134 FILLER_8_17
*135 FILLER_8_25
*136 FILLER_8_3
*137 FILLER_8_47
*138 FILLER_8_65
*139 FILLER_8_77
*140 FILLER_8_9
*141 FILLER_9_19
*142 FILLER_9_27
*143 FILLER_9_29
*144 FILLER_9_41
*145 FILLER_9_49
*146 FILLER_9_64
*147 FILLER_9_7
*148 FILLER_9_74
*149 PHY_EDGE_ROW_0_Left_10
*150 PHY_EDGE_ROW_0_Right_0
*151 PHY_EDGE_ROW_1_Left_11
*152 PHY_EDGE_ROW_1_Right_1
*153 PHY_EDGE_ROW_2_Left_12
*154 PHY_EDGE_ROW_2_Right_2
*155 PHY_EDGE_ROW_3_Left_13
*156 PHY_EDGE_ROW_3_Right_3
*157 PHY_EDGE_ROW_4_Left_14
*158 PHY_EDGE_ROW_4_Right_4
*159 PHY_EDGE_ROW_5_Left_15
*160 PHY_EDGE_ROW_5_Right_5
*161 PHY_EDGE_ROW_6_Left_16
*162 PHY_EDGE_ROW_6_Right_6
*163 PHY_EDGE_ROW_7_Left_17
*164 PHY_EDGE_ROW_7_Right_7
*165 PHY_EDGE_ROW_8_Left_18
*166 PHY_EDGE_ROW_8_Right_8
*167 PHY_EDGE_ROW_9_Left_19
*168 PHY_EDGE_ROW_9_Right_9
*169 TAP_TAPCELL_ROW_0_20
*170 TAP_TAPCELL_ROW_0_21
*171 TAP_TAPCELL_ROW_1_22
*172 TAP_TAPCELL_ROW_2_23
*173 TAP_TAPCELL_ROW_3_24
*174 TAP_TAPCELL_ROW_4_25
*175 TAP_TAPCELL_ROW_5_26
*176 TAP_TAPCELL_ROW_6_27
*177 TAP_TAPCELL_ROW_7_28
*178 TAP_TAPCELL_ROW_8_29
*179 TAP_TAPCELL_ROW_9_30
*180 TAP_TAPCELL_ROW_9_31
*181 _46_
*182 _47_
*183 _48_
*184 _49_
*185 _50_
*186 _51_
*187 _52_
*188 _53_
*189 _54_
*190 _55_
*191 _56_
*192 _57_
*193 _58_
*194 _59_
*195 _60_
*196 _61_
*197 _62_
*198 _63_
*199 _64_
*200 _65_
*201 _66_
*202 _67_
*203 _68_
*204 _69_
*205 _70_
*206 _71_
*207 _72_
*208 _73_
*209 _74_
*210 _75_
*211 _76_
*212 _77_
*213 _78_
*214 _79_
*215 _80_
*216 _81_
*217 _82_
*218 _83_
*219 _84_
*220 _85_
*221 _86_
*222 _87_
*223 _88_
*224 _89_
*225 _90_
*226 _91_
*227 _92_
*228 _93_
*229 _94_
*230 _95_
*231 _96_
*232 _97_
*233 _98_
*234 _99_
*235 input1
*236 input2
*237 input3
*238 input4
*239 input5
*240 input6
*241 input7
*242 input8
*243 output10
*244 output11
*245 output12
*246 output13
*247 output14
*248 output15
*249 output16
*250 output9

*PORTS
A[0] I
A[1] I
A[2] I
A[3] I
B[0] I
B[1] I
B[2] I
B[3] I
P[0] O
P[1] O
P[2] O
P[3] O
P[4] O
P[5] O
P[6] O
P[7] O

*D_NET *1 0.00113568
*CONN
*P A[0] I
*I *235:A I *D sky130_fd_sc_hd__clkbuf_2
*CAP
1 A[0] 0.000384364
2 *235:A 0.000384364
3 *235:A *201:D 8.64421e-05
4 *235:A *236:A 7.02318e-05
5 *235:A *73:6 4.82919e-05
6 *235:A *73:19 0.000161984
*RES
1 A[0] *235:A 11.475 
*END

*D_NET *2 0.00166469
*CONN
*P A[1] I
*I *236:A I *D sky130_fd_sc_hd__buf_1
*CAP
1 A[1] 0.000526951
2 *236:A 0.000526951
3 *236:A *201:D 0.000122797
4 *236:A *205:A2 0.000201737
5 *236:A *241:A 0
6 *236:A *73:6 6.77417e-05
7 *236:A *79:14 0.00014828
8 *235:A *236:A 7.02318e-05
*RES
1 A[1] *236:A 15.075 
*END

*D_NET *3 0.000620597
*CONN
*P A[2] I
*I *237:A I *D sky130_fd_sc_hd__clkbuf_2
*CAP
1 A[2] 0.000221986
2 *237:A 0.000221986
3 *237:A P[2] 9.12895e-05
4 *237:A *238:A 8.53361e-05
*RES
1 A[2] *237:A 6.18003 
*END

*D_NET *4 0.000483635
*CONN
*P A[3] I
*I *238:A I *D sky130_fd_sc_hd__buf_1
*CAP
1 A[3] 0.000194058
2 *238:A 0.000194058
3 *238:A P[6] 0
4 *238:A *220:A 1.0183e-05
5 *237:A *238:A 8.53361e-05
*RES
1 A[3] *238:A 5.35677 
*END

*D_NET *5 0.000416846
*CONN
*P B[0] I
*I *239:A I *D sky130_fd_sc_hd__buf_1
*CAP
1 B[0] 0.000127233
2 *239:A 0.000127233
3 *239:A P[0] 7.70436e-05
4 *239:A P[2] 8.53361e-05
5 *239:A *25:10 0
*RES
1 B[0] *239:A 4.84677 
*END

*D_NET *6 0.000798078
*CONN
*P B[1] I
*I *240:A I *D sky130_fd_sc_hd__buf_1
*CAP
1 B[1] 0.000385278
2 *240:A 0.000385278
3 *240:A P[1] 0
4 *240:A *184:C 0
5 *240:A *242:A 0
6 *240:A *79:6 2.75229e-05
*RES
1 B[1] *240:A 10.35 
*END

*D_NET *7 0.000995478
*CONN
*P B[2] I
*I *241:A I *D sky130_fd_sc_hd__clkbuf_2
*CAP
1 B[2] 0.000441736
2 *241:A 0.000441736
3 *241:A P[1] 0
4 *241:A *201:D 4.89295e-05
5 *241:A *20:12 4.77719e-05
6 *241:A *73:19 0
7 *241:A *79:14 1.53053e-05
8 *236:A *241:A 0
*RES
1 B[2] *241:A 11.34 
*END

*D_NET *8 0.00081664
*CONN
*P B[3] I
*I *242:A I *D sky130_fd_sc_hd__clkbuf_2
*CAP
1 B[3] 0.000391036
2 *242:A 0.000391036
3 *242:A *79:6 3.45679e-05
4 *240:A *242:A 0
*RES
1 B[3] *242:A 10.44 
*END

*D_NET *9 0.000470981
*CONN
*P P[0] O
*I *250:X O *D sky130_fd_sc_hd__buf_2
*CAP
1 P[0] 0.000196969
2 *250:X 0.000196969
3 *239:A P[0] 7.70436e-05
*RES
1 *250:X P[0] 4.90503 
*END

*D_NET *10 0.000894469
*CONN
*P P[1] O
*I *243:X O *D sky130_fd_sc_hd__buf_2
*CAP
1 P[1] 0.000415392
2 *243:X 0.000415392
3 P[1] *184:C 9.50342e-06
4 P[1] *243:A 2.75229e-05
5 P[1] *79:6 2.66586e-05
6 *240:A P[1] 0
7 *241:A P[1] 0
*RES
1 *243:X P[1] 10.53 
*END

*D_NET *11 0.000625123
*CONN
*P P[2] O
*I *244:X O *D sky130_fd_sc_hd__buf_2
*CAP
1 P[2] 0.000203981
2 *244:X 0.000203981
3 P[2] *244:A 4.05358e-05
4 *237:A P[2] 9.12895e-05
5 *239:A P[2] 8.53361e-05
*RES
1 *244:X P[2] 5.92503 
*END

*D_NET *12 0.000891698
*CONN
*P P[3] O
*I *245:X O *D sky130_fd_sc_hd__buf_2
*CAP
1 P[3] 0.000387966
2 *245:X 0.000387966
3 P[3] P[4] 8.82425e-05
4 P[3] *245:A 2.75229e-05
*RES
1 *245:X P[3] 8.9337 
*END

*D_NET *13 0.000718246
*CONN
*P P[4] O
*I *246:X O *D sky130_fd_sc_hd__buf_2
*CAP
1 P[4] 0.000285505
2 *246:X 0.000285505
3 P[4] P[5] 0
4 P[4] *246:A 5.89925e-05
5 P[3] P[4] 8.82425e-05
*RES
1 *246:X P[4] 6.4385 
*END

*D_NET *14 0.000591927
*CONN
*P P[5] O
*I *247:X O *D sky130_fd_sc_hd__buf_2
*CAP
1 P[5] 0.000295963
2 *247:X 0.000295963
3 P[5] *247:A 0
4 P[4] P[5] 0
*RES
1 *247:X P[5] 5.92503 
*END

*D_NET *15 0.000590707
*CONN
*P P[6] O
*I *248:X O *D sky130_fd_sc_hd__buf_2
*CAP
1 P[6] 0.000295354
2 *248:X 0.000295354
3 *238:A P[6] 0
*RES
1 *248:X P[6] 5.92503 
*END

*D_NET *16 0.00085605
*CONN
*P P[7] O
*I *249:X O *D sky130_fd_sc_hd__buf_2
*CAP
1 P[7] 0.000428025
2 *249:X 0.000428025
*RES
1 *249:X P[7] 11.205 
*END

*D_NET *19 0.00116817
*CONN
*I *182:A I *D sky130_fd_sc_hd__inv_2
*I *188:C I *D sky130_fd_sc_hd__and4_1
*I *189:A3 I *D sky130_fd_sc_hd__a31o_1
*I *181:Y O *D sky130_fd_sc_hd__nand2_1
*CAP
1 *182:A 8.25496e-05
2 *188:C 0
3 *189:A3 0
4 *181:Y 6.37305e-05
5 *19:17 0.000160143
6 *19:8 0.000141324
7 *182:A *188:D 4.99619e-05
8 *19:8 *188:A 9.06015e-05
9 *19:8 *188:B 2.30292e-05
10 *19:8 *188:D 2.34356e-05
11 *19:8 *189:B1 4.95456e-05
12 *19:8 *22:52 3.23663e-05
13 *19:8 *77:16 0.000163199
14 *19:17 *188:A 6.90876e-05
15 *19:17 *188:B 0.000203178
16 *19:17 *188:D 1.60203e-05
*RES
1 *181:Y *19:8 4.135 
2 *19:8 *189:A3 1.6 
3 *19:8 *19:17 2.535 
4 *19:17 *188:C 1.6 
5 *19:17 *182:A 3.085 
*END

*D_NET *20 0.00262803
*CONN
*I *184:A_N I *D sky130_fd_sc_hd__and3b_1
*I *202:C I *D sky130_fd_sc_hd__nand4_1
*I *205:B1 I *D sky130_fd_sc_hd__a31o_1
*I *183:X O *D sky130_fd_sc_hd__and4_1
*CAP
1 *184:A_N 0
2 *202:C 0
3 *205:B1 7.89479e-05
4 *183:X 0.000153652
5 *20:24 0.000369216
6 *20:12 0.000443919
7 *205:B1 *202:B 2.30292e-05
8 *205:B1 *205:A1 3.45588e-05
9 *205:B1 *37:12 9.22715e-05
10 *205:B1 *65:18 5.83121e-06
11 *205:B1 *65:22 4.43682e-05
12 *20:12 *184:C 0.000117138
13 *20:12 *79:6 8.9238e-05
14 *20:12 *79:14 4.77757e-05
15 *20:24 *186:A 9.13949e-06
16 *20:24 *193:A 4.0843e-05
17 *20:24 *193:B 0.000155601
18 *20:24 *201:D 4.86642e-05
19 *20:24 *202:B 0.000122331
20 *20:24 *22:52 3.83194e-05
21 *20:24 *28:12 1.5567e-05
22 *20:24 *65:14 0.000118081
23 *20:24 *65:16 0.000213849
24 *20:24 *65:18 5.42944e-05
25 *20:24 *78:23 0.000131168
26 *20:24 *79:53 0.000132456
27 *241:A *20:12 4.77719e-05
*RES
1 *183:X *20:12 9.32 
2 *20:12 *20:24 12.145 
3 *20:24 *205:B1 3.79 
4 *20:24 *202:C 1.6 
5 *20:12 *184:A_N 1.6 
*END

*D_NET *21 0.00495432
*CONN
*I *191:A I *D sky130_fd_sc_hd__xnor2_1
*I *196:A1_N I *D sky130_fd_sc_hd__o2bb2a_1
*I *195:C I *D sky130_fd_sc_hd__and4b_1
*I *197:B2 I *D sky130_fd_sc_hd__a2bb2o_1
*I *185:Y O *D sky130_fd_sc_hd__nand2_1
*CAP
1 *191:A 2.25927e-05
2 *196:A1_N 0.000248089
3 *195:C 0.000163818
4 *197:B2 1.63364e-05
5 *185:Y 0.000103567
6 *21:29 0.000640164
7 *21:14 0.000746904
8 *21:6 0.00062847
9 *191:A *185:A 4.22232e-05
10 *191:A *212:A3 0
11 *195:C *197:B1 0.000195071
12 *195:C *29:22 2.20014e-05
13 *196:A1_N *195:D 6.99252e-05
14 *196:A1_N *197:A1_N 0.000132961
15 *196:A1_N *222:A3 5.71481e-05
16 *196:A1_N *28:27 0.00023768
17 *196:A1_N *31:10 0.000129276
18 *196:A1_N *47:16 0.000133439
19 *196:A1_N *79:77 1.16554e-05
20 *197:B2 *197:B1 4.82863e-05
21 *197:B2 *39:14 8.57024e-05
22 *21:6 *185:A 0.000219362
23 *21:14 *185:A 3.58692e-05
24 *21:14 *203:A 4.82919e-05
25 *21:14 *204:A_N 8.8266e-05
26 *21:14 *204:B 0.000163175
27 *21:14 *212:A3 0.000193318
28 *21:14 *74:25 4.66108e-05
29 *21:14 *74:34 1.33285e-05
30 *21:14 *76:36 4.82919e-05
31 *21:14 *76:43 0.000164474
32 *21:29 *197:B1 0.000198026
*RES
1 *185:Y *21:6 3.775 
2 *21:6 *21:14 9.465 
3 *21:14 *197:B2 2.395 
4 *21:14 *21:29 3.6 
5 *21:29 *195:C 3.775 
6 *21:29 *196:A1_N 11.9412 
7 *21:6 *191:A 2.215 
*END

*D_NET *22 0.00442694
*CONN
*I *188:D I *D sky130_fd_sc_hd__and4_1
*I *189:B1 I *D sky130_fd_sc_hd__a31o_1
*I *197:A1_N I *D sky130_fd_sc_hd__a2bb2o_1
*I *196:B1 I *D sky130_fd_sc_hd__o2bb2a_1
*I *186:X O *D sky130_fd_sc_hd__and2_1
*CAP
1 *188:D 0.000147088
2 *189:B1 4.31379e-05
3 *197:A1_N 0.000180514
4 *196:B1 0.000104519
5 *186:X 8.14576e-05
6 *22:52 0.000658095
7 *22:10 0.000399486
8 *22:6 0.00066378
9 *188:D *188:B 0.000239813
10 *188:D *25:10 0.000164874
11 *196:B1 *187:A 9.50342e-06
12 *196:B1 *28:12 9.09788e-06
13 *197:A1_N *28:27 0.00015635
14 *197:A1_N *79:77 1.01155e-05
15 *22:6 *65:14 3.66286e-05
16 *22:6 *65:16 8.7695e-05
17 *22:10 *187:A 0.000198058
18 *22:10 *73:19 8.7602e-05
19 *22:10 *79:64 0
20 *22:52 *181:B 0.000201508
21 *22:52 *183:B 0.000239807
22 *22:52 *193:B 1.92187e-05
23 *22:52 *35:12 5.53249e-06
24 *22:52 *65:14 8.23457e-05
25 *22:52 *73:39 0.00016743
26 *22:52 *73:57 8.34281e-06
27 *22:52 *77:16 9.27255e-06
28 *22:52 *77:39 7.30547e-05
29 *22:52 *78:42 0
30 *22:52 *79:53 0
31 *182:A *188:D 4.99619e-05
32 *196:A1_N *197:A1_N 0.000132961
33 *19:8 *188:D 2.34356e-05
34 *19:8 *189:B1 4.95456e-05
35 *19:8 *22:52 3.23663e-05
36 *19:17 *188:D 1.60203e-05
37 *20:24 *22:52 3.83194e-05
*RES
1 *186:X *22:6 2.74 
2 *22:6 *22:10 4.655 
3 *22:10 *196:B1 5.37 
4 *22:10 *197:A1_N 6.885 
5 *22:6 *22:52 13.165 
6 *22:52 *189:B1 2.66125 
7 *22:52 *188:D 5.5 
*END

*D_NET *23 0.000750134
*CONN
*I *195:D I *D sky130_fd_sc_hd__and4b_1
*I *187:Y O *D sky130_fd_sc_hd__nand2_1
*CAP
1 *195:D 0.000140132
2 *187:Y 0.000140132
3 *195:D *197:B1 3.93101e-05
4 *195:D *222:A3 4.9968e-05
5 *195:D *29:22 9.66358e-05
6 *195:D *31:10 0.000114492
7 *195:D *39:14 9.95401e-05
8 *196:A1_N *195:D 6.99252e-05
*RES
1 *187:Y *195:D 10.6088 
*END

*D_NET *24 0.000994613
*CONN
*I *212:B1 I *D sky130_fd_sc_hd__a31o_1
*I *190:A_N I *D sky130_fd_sc_hd__and2b_1
*I *188:X O *D sky130_fd_sc_hd__and4_1
*CAP
1 *212:B1 0.000100374
2 *190:A_N 3.08798e-05
3 *188:X 0.000132236
4 *24:12 0.000263489
5 *190:A_N *76:8 8.8266e-05
6 *212:B1 *191:B 9.3062e-06
7 *212:B1 *203:A 0
8 *212:B1 *212:A2 5.53249e-06
9 *212:B1 *212:A3 0.000106648
10 *212:B1 *25:10 7.70828e-05
11 *212:B1 *47:16 0
12 *212:B1 *76:36 0
13 *24:12 *25:10 3.18219e-05
14 *24:12 *76:8 0.000148977
*RES
1 *188:X *24:12 8.21 
2 *24:12 *190:A_N 2.395 
3 *24:12 *212:B1 8 
*END

*D_NET *25 0.00129149
*CONN
*I *212:A3 I *D sky130_fd_sc_hd__a31o_1
*I *190:B I *D sky130_fd_sc_hd__and2b_1
*I *189:X O *D sky130_fd_sc_hd__a31o_1
*CAP
1 *212:A3 9.32844e-05
2 *190:B 0
3 *189:X 0.000194503
4 *25:10 0.000287787
5 *212:A3 *185:A 3.96653e-05
6 *212:A3 *191:B 4.94326e-05
7 *212:A3 *76:43 5.30673e-05
8 *25:10 *203:A 0
9 *188:D *25:10 0.000164874
10 *191:A *212:A3 0
11 *212:B1 *212:A3 0.000106648
12 *212:B1 *25:10 7.70828e-05
13 *239:A *25:10 0
14 *21:14 *212:A3 0.000193318
15 *24:12 *25:10 3.18219e-05
*RES
1 *189:X *25:10 6.975 
2 *25:10 *190:B 3.6 
3 *25:10 *212:A3 6.825 
*END

*D_NET *26 0.00020484
*CONN
*I *191:B I *D sky130_fd_sc_hd__xnor2_1
*I *190:X O *D sky130_fd_sc_hd__and2b_1
*CAP
1 *191:B 7.30505e-05
2 *190:X 7.30505e-05
3 *212:A3 *191:B 4.94326e-05
4 *212:B1 *191:B 9.3062e-06
*RES
1 *190:X *191:B 8.58 
*END

*D_NET *27 0.00263175
*CONN
*I *226:C I *D sky130_fd_sc_hd__and3_1
*I *198:A I *D sky130_fd_sc_hd__or3_1
*I *199:B1 I *D sky130_fd_sc_hd__o21ai_1
*I *192:Y O *D sky130_fd_sc_hd__nand2_1
*CAP
1 *226:C 0.000346164
2 *198:A 0.000132607
3 *199:B1 1.68372e-05
4 *192:Y 0
5 *27:10 0.000413726
6 *27:4 0.000610445
7 *198:A *199:A1 5.58286e-05
8 *198:A *199:A2 4.77719e-05
9 *198:A *34:10 7.46328e-06
10 *199:B1 *198:C 1.88904e-05
11 *199:B1 *222:A3 5.39961e-05
12 *199:B1 *31:10 3.09164e-05
13 *226:C *216:C 1.54712e-05
14 *226:C *226:B 1.31821e-05
15 *226:C *59:10 9.50342e-06
16 *226:C *74:64 0.000113247
17 *226:C *74:78 0
18 *226:C *74:103 0
19 *226:C *78:66 1.43191e-05
20 *226:C *79:77 0.0001249
21 *226:C *79:90 0.000314755
22 *27:10 *222:A1 9.28568e-05
23 *27:10 *222:A3 0.000139252
24 *27:10 *56:16 3.09233e-05
25 *27:10 *78:66 2.86975e-05
26 *27:10 *79:77 0
*RES
1 *192:Y *27:4 1.6 
2 *27:4 *27:10 6.23 
3 *27:10 *199:B1 4.215 
4 *27:10 *198:A 5.79 
5 *27:4 *226:C 11.405 
*END

*D_NET *28 0.0017951
*CONN
*I *197:A2_N I *D sky130_fd_sc_hd__a2bb2o_1
*I *195:A_N I *D sky130_fd_sc_hd__and4b_1
*I *196:B2 I *D sky130_fd_sc_hd__o2bb2a_1
*I *193:Y O *D sky130_fd_sc_hd__nand2_1
*CAP
1 *197:A2_N 0
2 *195:A_N 6.60094e-05
3 *196:B2 0
4 *193:Y 0.00012059
5 *28:27 0.000220156
6 *28:12 0.000274737
7 *195:A_N *197:B1 0.000128804
8 *195:A_N *39:14 0.00012245
9 *28:12 *187:A 5.12748e-05
10 *28:12 *193:A 1.16578e-05
11 *28:27 *187:B 0.000122184
12 *28:27 *47:16 8.15136e-05
13 *28:27 *79:77 0.000177026
14 *196:A1_N *28:27 0.00023768
15 *196:B1 *28:12 9.09788e-06
16 *197:A1_N *28:27 0.00015635
17 *20:24 *28:12 1.5567e-05
*RES
1 *193:Y *28:12 7.43 
2 *28:12 *196:B2 1.6 
3 *28:12 *28:27 9.025 
4 *28:27 *195:A_N 3.55 
5 *28:27 *197:A2_N 1.6 
*END

*D_NET *29 0.00299082
*CONN
*I *196:A2_N I *D sky130_fd_sc_hd__o2bb2a_1
*I *197:B1 I *D sky130_fd_sc_hd__a2bb2o_1
*I *195:B I *D sky130_fd_sc_hd__and4b_1
*I *194:X O *D sky130_fd_sc_hd__and2_1
*CAP
1 *196:A2_N 0
2 *197:B1 0.0001523
3 *195:B 0
4 *194:X 0.000368452
5 *29:22 0.000454348
6 *29:6 0.0006705
7 *197:B1 *39:14 5.63594e-05
8 *29:6 *47:16 0.000526869
9 *29:22 *205:A3 2.97004e-06
10 *29:22 *30:10 5.83121e-06
11 *29:22 *39:14 2.50572e-05
12 *195:A_N *197:B1 0.000128804
13 *195:C *197:B1 0.000195071
14 *195:C *29:22 2.20014e-05
15 *195:D *197:B1 3.93101e-05
16 *195:D *29:22 9.66358e-05
17 *197:B2 *197:B1 4.82863e-05
18 *21:29 *197:B1 0.000198026
*RES
1 *194:X *29:6 6.535 
2 *29:6 *29:22 9.505 
3 *29:22 *195:B 1.6 
4 *29:22 *197:B1 6.325 
5 *29:6 *196:A2_N 1.6 
*END

*D_NET *30 0.0013682
*CONN
*I *222:B1 I *D sky130_fd_sc_hd__a31oi_2
*I *199:A1 I *D sky130_fd_sc_hd__o21ai_1
*I *198:B I *D sky130_fd_sc_hd__or3_1
*I *195:X O *D sky130_fd_sc_hd__and4b_1
*CAP
1 *222:B1 0.000168962
2 *199:A1 6.85168e-05
3 *198:B 3.52721e-05
4 *195:X 0.00023583
5 *30:21 0.000288466
6 *30:10 0.00032209
7 *198:B *34:10 4.77774e-05
8 *199:A1 *34:10 0.000128089
9 *222:B1 *198:C 7.97197e-06
10 *222:B1 *209:A1 0
11 *222:B1 *209:A2 0
12 *30:10 *39:14 3.56244e-06
13 *30:21 *209:A2 0
14 *198:A *199:A1 5.58286e-05
15 *29:22 *30:10 5.83121e-06
*RES
1 *195:X *30:10 6.96 
2 *30:10 *198:B 4.05 
3 *30:10 *30:21 0.615 
4 *30:21 *199:A1 5.445 
5 *30:21 *222:B1 6.195 
*END

*D_NET *31 0.00183271
*CONN
*I *198:C I *D sky130_fd_sc_hd__or3_1
*I *199:A2 I *D sky130_fd_sc_hd__o21ai_1
*I *196:X O *D sky130_fd_sc_hd__o2bb2a_1
*CAP
1 *198:C 0.000123999
2 *199:A2 1.39986e-05
3 *196:X 0.000488298
4 *31:10 0.000626296
5 *199:A2 *34:10 1.75688e-05
6 *31:10 *222:A3 0.000190092
7 *31:10 *47:16 2.3135e-05
8 *195:D *31:10 0.000114492
9 *196:A1_N *31:10 0.000129276
10 *198:A *199:A2 4.77719e-05
11 *199:B1 *198:C 1.88904e-05
12 *199:B1 *31:10 3.09164e-05
13 *222:B1 *198:C 7.97197e-06
*RES
1 *196:X *31:10 11.835 
2 *31:10 *199:A2 4.05 
3 *31:10 *198:C 5.205 
*END

*D_NET *32 0.0013046
*CONN
*I *222:A3 I *D sky130_fd_sc_hd__a31oi_2
*I *197:X O *D sky130_fd_sc_hd__a2bb2o_1
*CAP
1 *222:A3 0.000335408
2 *197:X 0.000335408
3 *222:A3 *222:A1 4.77757e-05
4 *222:A3 *222:A2 4.77757e-05
5 *222:A3 *39:14 4.77757e-05
6 *195:D *222:A3 4.9968e-05
7 *196:A1_N *222:A3 5.71481e-05
8 *199:B1 *222:A3 5.39961e-05
9 *27:10 *222:A3 0.000139252
10 *31:10 *222:A3 0.000190092
*RES
1 *197:X *222:A3 14.835 
*END

*D_NET *33 0.000865632
*CONN
*I *208:A I *D sky130_fd_sc_hd__and3_1
*I *209:A1 I *D sky130_fd_sc_hd__a21o_1
*I *198:X O *D sky130_fd_sc_hd__or3_1
*CAP
1 *208:A 0
2 *209:A1 0.000221837
3 *198:X 0.000158236
4 *33:8 0.000380073
5 *209:A1 *209:A2 3.47837e-05
6 *33:8 *34:10 7.07032e-05
7 *222:B1 *209:A1 0
*RES
1 *198:X *33:8 3.79 
2 *33:8 *209:A1 8.21 
3 *33:8 *208:A 1.6 
*END

*D_NET *34 0.00138774
*CONN
*I *208:B I *D sky130_fd_sc_hd__and3_1
*I *209:A2 I *D sky130_fd_sc_hd__a21o_1
*I *199:Y O *D sky130_fd_sc_hd__o21ai_1
*CAP
1 *208:B 2.08101e-05
2 *209:A2 0.000136544
3 *199:Y 0.00033352
4 *34:10 0.000490874
5 *209:A2 *208:C 1.27558e-05
6 *209:A2 *209:B1 5.42473e-05
7 *209:A2 *42:10 3.25997e-05
8 *198:A *34:10 7.46328e-06
9 *198:B *34:10 4.77774e-05
10 *199:A1 *34:10 0.000128089
11 *199:A2 *34:10 1.75688e-05
12 *209:A1 *209:A2 3.47837e-05
13 *222:B1 *209:A2 0
14 *30:21 *209:A2 0
15 *33:8 *34:10 7.07032e-05
*RES
1 *199:Y *34:10 7 
2 *34:10 *209:A2 8.45 
3 *34:10 *208:B 1.96 
*END

*D_NET *35 0.00231167
*CONN
*I *218:A I *D sky130_fd_sc_hd__xnor2_1
*I *227:A1 I *D sky130_fd_sc_hd__a21o_1
*I *200:X O *D sky130_fd_sc_hd__and4_1
*CAP
1 *218:A 0.00018029
2 *227:A1 0
3 *200:X 0.000602538
4 *35:12 0.000782829
5 *218:A *218:B 0.000155997
6 *218:A *74:8 1.61831e-05
7 *35:12 *204:C 8.48193e-05
8 *35:12 *218:B 4.66108e-05
9 *35:12 *38:19 0
10 *35:12 *74:10 0
11 *35:12 *74:60 0
12 *35:12 *77:39 4.19884e-05
13 *35:12 *78:42 5.53249e-06
14 *35:12 *78:51 6.02123e-05
15 *35:12 *78:64 0.000329135
16 *22:52 *35:12 5.53249e-06
*RES
1 *200:X *35:12 17.165 
2 *35:12 *227:A1 1.6 
3 *35:12 *218:A 4.825 
*END

*D_NET *36 0.00137157
*CONN
*I *205:A3 I *D sky130_fd_sc_hd__a31o_1
*I *202:D I *D sky130_fd_sc_hd__nand4_1
*I *201:Y O *D sky130_fd_sc_hd__nand4_1
*CAP
1 *205:A3 0.000357641
2 *202:D 0
3 *201:Y 5.05661e-05
4 *36:8 0.000408207
5 *205:A3 *202:B 2.78732e-05
6 *205:A3 *37:12 0
7 *205:A3 *47:16 0.000353049
8 *36:8 *201:A 9.30717e-05
9 *36:8 *202:A 0
10 *36:8 *202:B 7.81954e-05
11 *29:22 *205:A3 2.97004e-06
*RES
1 *201:Y *36:8 5.235 
2 *36:8 *202:D 3.6 
3 *36:8 *205:A3 13.57 
*END

*D_NET *37 0.00211752
*CONN
*I *206:A I *D sky130_fd_sc_hd__nand3_1
*I *207:B1_N I *D sky130_fd_sc_hd__a21bo_1
*I *211:A1 I *D sky130_fd_sc_hd__a21o_1
*I *202:Y O *D sky130_fd_sc_hd__nand4_1
*CAP
1 *206:A 0.000150933
2 *207:B1_N 0
3 *211:A1 4.03891e-05
4 *202:Y 0.000372728
5 *37:14 4.03891e-05
6 *37:12 0.00052366
7 *206:A *206:B 8.7974e-05
8 *206:A *206:C 0.000131408
9 *206:A *40:10 2.92496e-05
10 *206:A *42:10 0
11 *206:A *48:10 0
12 *206:A *48:19 0
13 *211:A1 *211:A2 4.82863e-05
14 *211:A1 *211:B1 4.35648e-05
15 *211:A1 *39:20 8.76422e-05
16 *37:12 *205:A1 1.33293e-05
17 *37:12 *206:B 1.52184e-05
18 *37:12 *213:A 5.84902e-05
19 *37:12 *233:B1 0
20 *37:12 *40:10 0.000381985
21 *205:A3 *37:12 0
22 *205:B1 *37:12 9.22715e-05
*RES
1 *202:Y *37:12 11.19 
2 *37:12 *37:14 2 
3 *37:14 *211:A1 2.755 
4 *37:14 *207:B1_N 1.6 
5 *37:12 *206:A 7.095 
*END

*D_NET *38 0.00151335
*CONN
*I *218:B I *D sky130_fd_sc_hd__xnor2_1
*I *227:A2 I *D sky130_fd_sc_hd__a21o_1
*I *204:A_N I *D sky130_fd_sc_hd__and3b_1
*I *203:X O *D sky130_fd_sc_hd__and4_1
*CAP
1 *218:B 9.22885e-05
2 *227:A2 0
3 *204:A_N 6.15017e-05
4 *203:X 0
5 *38:19 0.000241919
6 *38:4 0.000211132
7 *204:A_N *74:34 1.85674e-05
8 *218:B *74:8 0.000275548
9 *38:19 *74:10 0.000277029
10 *38:19 *74:60 4.44927e-05
11 *218:A *218:B 0.000155997
12 *21:14 *204:A_N 8.8266e-05
13 *35:12 *218:B 4.66108e-05
14 *35:12 *38:19 0
*RES
1 *203:X *38:4 1.6 
2 *38:4 *204:A_N 3.01 
3 *38:4 *38:19 7.675 
4 *38:19 *227:A2 1.6 
5 *38:19 *218:B 4.93 
*END

*D_NET *39 0.00313364
*CONN
*I *207:A1 I *D sky130_fd_sc_hd__a21bo_1
*I *206:B I *D sky130_fd_sc_hd__nand3_1
*I *211:B1 I *D sky130_fd_sc_hd__a21o_1
*I *204:X O *D sky130_fd_sc_hd__and3b_1
*CAP
1 *207:A1 0
2 *206:B 6.95783e-05
3 *211:B1 7.07792e-05
4 *204:X 0.000749485
5 *39:20 0.000264039
6 *39:14 0.000873166
7 *206:B *213:A 9.61414e-05
8 *206:B *41:8 7.23602e-05
9 *206:B *48:10 0
10 *211:B1 *233:A1 2.75145e-05
11 *211:B1 *233:A2 2.34602e-05
12 *39:14 *207:A2 4.99619e-05
13 *39:14 *42:10 3.23663e-05
14 *39:20 *207:A2 0.000110781
15 *39:20 *211:A2 1.91597e-05
16 *195:A_N *39:14 0.00012245
17 *195:D *39:14 9.95401e-05
18 *197:B1 *39:14 5.63594e-05
19 *197:B2 *39:14 8.57024e-05
20 *206:A *206:B 8.7974e-05
21 *211:A1 *211:B1 4.35648e-05
22 *211:A1 *39:20 8.76422e-05
23 *222:A3 *39:14 4.77757e-05
24 *29:22 *39:14 2.50572e-05
25 *30:10 *39:14 3.56244e-06
26 *37:12 *206:B 1.52184e-05
*RES
1 *204:X *39:14 12.895 
2 *39:14 *39:20 2.64 
3 *39:20 *211:B1 3.115 
4 *39:20 *206:B 7.745 
5 *39:14 *207:A1 1.6 
*END

*D_NET *40 0.00169172
*CONN
*I *206:C I *D sky130_fd_sc_hd__nand3_1
*I *207:A2 I *D sky130_fd_sc_hd__a21bo_1
*I *211:A2 I *D sky130_fd_sc_hd__a21o_1
*I *205:X O *D sky130_fd_sc_hd__a31o_1
*CAP
1 *206:C 9.36528e-05
2 *207:A2 5.27451e-05
3 *211:A2 4.44923e-05
4 *205:X 0.000236098
5 *40:12 9.72375e-05
6 *40:10 0.000329751
7 *206:C *42:10 3.68682e-05
8 *207:A2 *42:10 3.00381e-05
9 *206:A *206:C 0.000131408
10 *206:A *40:10 2.92496e-05
11 *211:A1 *211:A2 4.82863e-05
12 *37:12 *40:10 0.000381985
13 *39:14 *207:A2 4.99619e-05
14 *39:20 *207:A2 0.000110781
15 *39:20 *211:A2 1.91597e-05
*RES
1 *205:X *40:10 8.07 
2 *40:10 *40:12 2 
3 *40:12 *211:A2 2.395 
4 *40:12 *207:A2 3.085 
5 *40:10 *206:C 5.685 
*END

*D_NET *41 0.00117987
*CONN
*I *233:A1 I *D sky130_fd_sc_hd__a21oi_1
*I *213:A I *D sky130_fd_sc_hd__and3_1
*I *206:Y O *D sky130_fd_sc_hd__nand3_1
*CAP
1 *233:A1 0.000157074
2 *213:A 0.000176351
3 *206:Y 3.81081e-05
4 *41:8 0.000371534
5 *213:A *213:B 2.67022e-05
6 *213:A *233:B1 8.8266e-05
7 *213:A *47:16 0
8 *213:A *48:10 3.72916e-05
9 *233:A1 *233:A2 3.00381e-05
10 *41:8 *48:10 0
11 *206:B *213:A 9.61414e-05
12 *206:B *41:8 7.23602e-05
13 *211:B1 *233:A1 2.75145e-05
14 *37:12 *213:A 5.84902e-05
*RES
1 *206:Y *41:8 4.47 
2 *41:8 *213:A 7.665 
3 *41:8 *233:A1 5.43 
*END

*D_NET *42 0.00125282
*CONN
*I *209:B1 I *D sky130_fd_sc_hd__a21o_1
*I *208:C I *D sky130_fd_sc_hd__and3_1
*I *207:X O *D sky130_fd_sc_hd__a21bo_1
*CAP
1 *209:B1 5.45087e-05
2 *208:C 7.33577e-05
3 *207:X 0.000296549
4 *42:10 0.000424416
5 *208:C *43:10 8.65961e-05
6 *209:B1 *43:10 0.00011852
7 *206:A *42:10 0
8 *206:C *42:10 3.68682e-05
9 *207:A2 *42:10 3.00381e-05
10 *209:A2 *208:C 1.27558e-05
11 *209:A2 *209:B1 5.42473e-05
12 *209:A2 *42:10 3.25997e-05
13 *39:14 *42:10 3.23663e-05
*RES
1 *207:X *42:10 8.67 
2 *42:10 *208:C 4.965 
3 *42:10 *209:B1 5.235 
*END

*D_NET *43 0.00297372
*CONN
*I *230:B2 I *D sky130_fd_sc_hd__a221o_1
*I *215:B1 I *D sky130_fd_sc_hd__a21oi_1
*I *210:A_N I *D sky130_fd_sc_hd__and2b_1
*I *208:X O *D sky130_fd_sc_hd__and3_1
*CAP
1 *230:B2 0.000575089
2 *215:B1 0.000136463
3 *210:A_N 5.72325e-05
4 *208:X 0.000168439
5 *43:23 0.000863572
6 *43:10 0.000377692
7 *210:A_N *44:6 8.8266e-05
8 *215:B1 *225:A 8.5768e-05
9 *215:B1 *230:A1 8.31082e-05
10 *215:B1 *48:32 4.92935e-05
11 *230:B2 *224:A 0
12 *230:B2 *225:A 0
13 *230:B2 *225:B 8.31173e-05
14 *230:B2 *230:A1 7.94673e-05
15 *230:B2 *230:B1 0.000121094
16 *43:23 *215:A1 0
17 *208:C *43:10 8.65961e-05
18 *209:B1 *43:10 0.00011852
*RES
1 *208:X *43:10 6.375 
2 *43:10 *210:A_N 4.74 
3 *43:10 *43:23 4.4 
4 *43:23 *215:B1 4.465 
5 *43:23 *230:B2 13.8687 
*END

*D_NET *44 0.000557031
*CONN
*I *210:B I *D sky130_fd_sc_hd__and2b_1
*I *215:A1 I *D sky130_fd_sc_hd__a21oi_1
*I *209:X O *D sky130_fd_sc_hd__a21o_1
*CAP
1 *210:B 0
2 *215:A1 0.000119403
3 *209:X 0.000114979
4 *44:6 0.000234382
5 *215:A1 *48:32 0
6 *210:A_N *44:6 8.8266e-05
7 *43:23 *215:A1 0
*RES
1 *209:X *44:6 3.43 
2 *44:6 *215:A1 7.49 
3 *44:6 *210:B 1.6 
*END

*D_NET *45 0.000250601
*CONN
*I *214:A I *D sky130_fd_sc_hd__xor2_1
*I *210:X O *D sky130_fd_sc_hd__and2b_1
*CAP
1 *214:A 0.0001253
2 *210:X 0.0001253
*RES
1 *210:X *214:A 5.045 
*END

*D_NET *46 0.000600484
*CONN
*I *233:A2 I *D sky130_fd_sc_hd__a21oi_1
*I *213:B I *D sky130_fd_sc_hd__and3_1
*I *211:X O *D sky130_fd_sc_hd__a21o_1
*CAP
1 *233:A2 6.07092e-05
2 *213:B 0.000116718
3 *211:X 0
4 *46:4 0.000177427
5 *213:B *48:10 0.00016543
6 *211:B1 *233:A2 2.34602e-05
7 *213:A *213:B 2.67022e-05
8 *233:A1 *233:A2 3.00381e-05
*RES
1 *211:X *46:4 1.6 
2 *46:4 *213:B 7.61 
3 *46:4 *233:A2 2.92 
*END

*D_NET *47 0.00473211
*CONN
*I *213:C I *D sky130_fd_sc_hd__and3_1
*I *233:B1 I *D sky130_fd_sc_hd__a21oi_1
*I *212:X O *D sky130_fd_sc_hd__a31o_1
*CAP
1 *213:C 0
2 *233:B1 0.000331388
3 *212:X 0.000945573
4 *47:16 0.00127696
5 *233:B1 *234:B 5.39961e-05
6 *233:B1 *48:10 0.000208434
7 *47:16 *187:B 0.000196045
8 *47:16 *194:B 0.00023344
9 *47:16 *203:A 9.24127e-05
10 *47:16 *48:10 2.69483e-05
11 *47:16 *76:8 0.000160641
12 *196:A1_N *47:16 0.000133439
13 *205:A3 *47:16 0.000353049
14 *212:B1 *47:16 0
15 *213:A *233:B1 8.8266e-05
16 *213:A *47:16 0
17 *28:27 *47:16 8.15136e-05
18 *29:6 *47:16 0.000526869
19 *31:10 *47:16 2.3135e-05
20 *37:12 *233:B1 0
*RES
1 *212:X *47:16 25.5575 
2 *47:16 *233:B1 11.2325 
3 *47:16 *213:C 1.6 
*END

*D_NET *48 0.00401234
*CONN
*I *230:A1 I *D sky130_fd_sc_hd__a221o_1
*I *215:A2 I *D sky130_fd_sc_hd__a21oi_1
*I *214:B I *D sky130_fd_sc_hd__xor2_1
*I *234:A I *D sky130_fd_sc_hd__nor2_1
*I *213:X O *D sky130_fd_sc_hd__and3_1
*CAP
1 *230:A1 0.000700771
2 *215:A2 3.55506e-05
3 *214:B 0
4 *234:A 0
5 *213:X 0.00026454
6 *48:32 0.000982513
7 *48:19 0.000496455
8 *48:10 0.000514804
9 *230:A1 *224:A 1.52352e-05
10 *230:A1 *224:B 2.20014e-05
11 *230:A1 *54:8 2.8185e-05
12 *230:A1 *56:16 0.000138015
13 *48:10 *234:B 8.7974e-05
14 *48:19 *245:A 7.63204e-05
15 *48:19 *246:A 0
16 *206:A *48:10 0
17 *206:A *48:19 0
18 *206:B *48:10 0
19 *213:A *48:10 3.72916e-05
20 *213:B *48:10 0.00016543
21 *215:A1 *48:32 0
22 *215:B1 *230:A1 8.31082e-05
23 *215:B1 *48:32 4.92935e-05
24 *230:B2 *230:A1 7.94673e-05
25 *233:B1 *48:10 0.000208434
26 *41:8 *48:10 0
27 *47:16 *48:10 2.69483e-05
*RES
1 *213:X *48:10 9.795 
2 *48:10 *234:A 3.6 
3 *48:10 *48:19 4.44 
4 *48:19 *214:B 3.6 
5 *48:19 *48:32 5.81 
6 *48:32 *215:A2 2.215 
7 *48:32 *230:A1 16.82 
*END

*D_NET *49 0.000370476
*CONN
*I *225:A I *D sky130_fd_sc_hd__xnor2_1
*I *215:Y O *D sky130_fd_sc_hd__a21oi_1
*CAP
1 *225:A 0.000142354
2 *215:Y 0.000142354
3 *215:B1 *225:A 8.5768e-05
4 *230:B2 *225:A 0
*RES
1 *215:Y *225:A 9.3525 
*END

*D_NET *50 0.00293903
*CONN
*I *217:A_N I *D sky130_fd_sc_hd__and3b_1
*I *219:A_N I *D sky130_fd_sc_hd__and4bb_1
*I *232:B1 I *D sky130_fd_sc_hd__a211o_1
*I *216:X O *D sky130_fd_sc_hd__and4_1
*CAP
1 *217:A_N 0.000147456
2 *219:A_N 0
3 *232:B1 0.000235849
4 *216:X 0.000136141
5 *50:21 0.000201054
6 *50:6 0.000425588
7 *217:A_N *217:B 9.82538e-05
8 *217:A_N *217:C 2.96352e-05
9 *217:A_N *75:12 0.000141323
10 *232:B1 *219:D 3.96088e-05
11 *232:B1 *231:A 4.82919e-05
12 *232:B1 *231:B 2.75229e-05
13 *232:B1 *232:C1 7.63204e-05
14 *232:B1 *59:10 0
15 *232:B1 *60:10 0.000316806
16 *232:B1 *62:12 0.000139245
17 *232:B1 *63:10 5.92269e-05
18 *50:6 *217:B 4.66108e-05
19 *50:6 *75:12 8.40269e-05
20 *50:6 *75:16 8.23457e-05
21 *50:6 *79:90 6.65725e-05
22 *50:21 *217:B 0.000312176
23 *50:21 *75:12 0.000224971
*RES
1 *216:X *50:6 4.12 
2 *50:6 *232:B1 12.02 
3 *50:6 *50:21 2.865 
4 *50:21 *219:A_N 1.6 
5 *50:21 *217:A_N 8.675 
*END

*D_NET *51 0.000856533
*CONN
*I *220:A I *D sky130_fd_sc_hd__xor2_2
*I *217:X O *D sky130_fd_sc_hd__and3b_1
*CAP
1 *220:A 0.00027829
2 *217:X 0.00027829
3 *220:A *217:C 4.99619e-05
4 *220:A *220:B 0
5 *220:A *52:10 0
6 *220:A *75:12 0.000239807
7 *220:A *79:99 0
8 *238:A *220:A 1.0183e-05
*RES
1 *217:X *220:A 12.135 
*END

*D_NET *52 0.000733496
*CONN
*I *220:B I *D sky130_fd_sc_hd__xor2_2
*I *219:B_N I *D sky130_fd_sc_hd__and4bb_1
*I *218:Y O *D sky130_fd_sc_hd__xnor2_1
*CAP
1 *220:B 0.000246804
2 *219:B_N 0
3 *218:Y 0.000111251
4 *52:10 0.000358055
5 *220:B *60:10 0
6 *52:10 *60:10 0
7 *52:10 *74:8 1.7386e-05
8 *220:A *220:B 0
9 *220:A *52:10 0
*RES
1 *218:Y *52:10 5.175 
2 *52:10 *219:B_N 3.6 
3 *52:10 *220:B 5.7425 
*END

*D_NET *53 0.000368757
*CONN
*I *227:B1 I *D sky130_fd_sc_hd__a21o_1