*SPEF "ieee 1481-1999"
*DESIGN "mult8_2bits_1op_e17108"
*DATE "14:45:29 Tuesday September 16, 2025"
*VENDOR "The OpenROAD Project"
*PROGRAM "OpenROAD"
*VERSION "edf00dff99f6c40d67a30c0e22a8191c5d2ed9d6"
*DESIGN_FLOW "NAME_SCOPE LOCAL" "PIN_CAP NONE"
*DIVIDER /
*DELIMITER :
*BUS_DELIMITER []
*T_UNIT 1 NS
*C_UNIT 1 PF
*R_UNIT 1 OHM
*L_UNIT 1 HENRY

*NAME_MAP
*1 A[0]
*2 A[1]
*3 A[2]
*4 A[3]
*5 A[4]
*6 A[5]
*7 A[6]
*8 A[7]
*9 B[0]
*10 B[1]
*11 B[2]
*12 B[3]
*13 B[4]
*14 B[5]
*15 B[6]
*16 B[7]
*17 P[0]
*18 P[10]
*19 P[11]
*20 P[12]
*21 P[13]
*22 P[14]
*23 P[15]
*24 P[1]
*25 P[2]
*26 P[3]
*27 P[4]
*28 P[5]
*29 P[6]
*30 P[7]
*31 P[8]
*32 P[9]
*35 _000_
*36 _001_
*37 _002_
*38 _003_
*39 _004_
*40 _005_
*41 _006_
*42 _007_
*43 _008_
*44 _009_
*45 _010_
*46 _011_
*47 _012_
*48 _013_
*49 _014_
*50 _015_
*51 _016_
*52 _017_
*53 _018_
*54 _019_
*55 _020_
*56 _021_
*57 _022_
*58 _023_
*59 _024_
*60 _025_
*61 _026_
*62 _027_
*63 _028_
*64 _029_
*65 _030_
*66 _031_
*67 _032_
*68 _033_
*69 _034_
*70 _035_
*71 _036_
*72 _037_
*73 _038_
*74 _039_
*75 _040_
*76 _041_
*77 _042_
*78 _043_
*79 _044_
*80 _045_
*81 _046_
*82 _047_
*83 _048_
*84 _049_
*85 _050_
*86 _051_
*87 _052_
*88 _053_
*89 _054_
*90 _055_
*91 _056_
*92 _057_
*93 _058_
*94 _059_
*95 _060_
*96 _061_
*97 _062_
*98 _063_
*99 _064_
*100 _065_
*101 _066_
*102 _067_
*103 _068_
*104 _069_
*105 _070_
*106 _071_
*107 _072_
*108 _073_
*109 _074_
*110 _075_
*111 _076_
*112 _077_
*113 _078_
*114 _079_
*115 _080_
*116 _081_
*117 _082_
*118 _083_
*119 _084_
*120 _085_
*121 _086_
*122 _087_
*123 _088_
*124 _089_
*125 _090_
*126 _091_
*127 _092_
*128 _093_
*129 _094_
*130 _095_
*131 _096_
*132 _097_
*133 _098_
*134 _099_
*135 _100_
*136 _101_
*137 _102_
*138 _103_
*139 _104_
*140 _105_
*141 _106_
*142 _107_
*143 _108_
*144 _109_
*145 _110_
*146 _111_
*147 _112_
*148 _113_
*149 _114_
*150 _115_
*151 _116_
*152 _117_
*153 _118_
*154 _119_
*155 _120_
*156 _121_
*157 _122_
*158 _123_
*159 _124_
*160 _125_
*161 _126_
*162 _127_
*163 _128_
*164 _129_
*165 _130_
*166 _131_
*167 _132_
*168 _133_
*169 _134_
*170 _135_
*171 _136_
*172 _137_
*173 _138_
*174 _139_
*175 _140_
*176 _141_
*177 _142_
*178 _143_
*179 _144_
*180 _145_
*181 _146_
*182 _147_
*183 _148_
*184 _149_
*185 _150_
*186 _151_
*187 _152_
*188 _153_
*189 _154_
*190 _155_
*191 _156_
*192 _157_
*193 _158_
*194 _159_
*195 _160_
*196 _161_
*197 _162_
*198 _163_
*199 _164_
*200 _165_
*201 _166_
*202 _167_
*203 _168_
*204 _169_
*205 _170_
*206 _171_
*207 _172_
*208 _173_
*209 _174_
*210 _175_
*211 _176_
*212 _177_
*213 _178_
*214 _179_
*215 _180_
*216 _181_
*217 _182_
*218 _183_
*219 _184_
*220 _185_
*221 _186_
*222 _187_
*223 _188_
*224 _189_
*225 _190_
*226 _191_
*227 _192_
*228 _193_
*229 _194_
*230 _195_
*231 _196_
*232 _197_
*233 _198_
*234 _199_
*235 _200_
*236 _201_
*237 _202_
*238 _203_
*239 _204_
*240 _205_
*241 _206_
*242 _207_
*243 _208_
*244 _209_
*245 _210_
*246 _211_
*247 _212_
*248 _213_
*249 _214_
*250 _215_
*251 _216_
*252 _217_
*253 _218_
*254 _219_
*255 _220_
*256 _221_
*257 _222_
*258 _223_
*259 _224_
*260 _225_
*261 _226_
*262 _227_
*263 _228_
*264 _229_
*265 _230_
*266 _231_
*267 _232_
*268 _233_
*269 _234_
*270 mul_ll\.mul_ll\.pp1
*271 net1
*272 net10
*273 net11
*274 net12
*275 net13
*276 net14
*277 net15
*278 net16
*279 net17
*280 net18
*281 net19
*282 net2
*283 net20
*284 net21
*285 net22
*286 net23
*287 net24
*288 net25
*289 net26
*290 net27
*291 net28
*292 net29
*293 net3
*294 net30
*295 net31
*296 net32
*297 net33
*298 net34
*299 net35
*300 net36
*301 net37
*302 net38
*303 net39
*304 net4
*305 net40
*306 net41
*307 net42
*308 net43
*309 net44
*310 net45
*311 net46
*312 net47
*313 net48
*314 net49
*315 net5
*316 net50
*317 net51
*318 net52
*319 net53
*320 net54
*321 net55
*322 net56
*323 net57
*324 net58
*325 net59
*326 net6
*327 net60
*328 net61
*329 net62
*330 net63
*331 net64
*332 net65
*333 net66
*334 net67
*335 net68
*336 net69
*337 net7
*338 net70
*339 net71
*340 net72
*341 net73
*342 net74
*343 net77
*344 net78
*345 net8
*346 net84
*347 net9
*348 FILLER_0_105
*349 FILLER_0_111
*350 FILLER_0_113
*351 FILLER_0_119
*352 FILLER_0_127
*353 FILLER_0_133
*354 FILLER_0_139
*355 FILLER_0_141
*356 FILLER_0_149
*357 FILLER_0_15
*358 FILLER_0_154
*359 FILLER_0_160
*360 FILLER_0_169
*361 FILLER_0_183
*362 FILLER_0_194
*363 FILLER_0_203
*364 FILLER_0_210
*365 FILLER_0_222
*366 FILLER_0_225
*367 FILLER_0_237
*368 FILLER_0_249
*369 FILLER_0_253
*370 FILLER_0_261
*371 FILLER_0_266
*372 FILLER_0_27
*373 FILLER_0_278
*374 FILLER_0_281
*375 FILLER_0_29
*376 FILLER_0_293
*377 FILLER_0_3
*378 FILLER_0_305
*379 FILLER_0_309
*380 FILLER_0_321
*381 FILLER_0_333
*382 FILLER_0_337
*383 FILLER_0_349
*384 FILLER_0_361
*385 FILLER_0_365
*386 FILLER_0_377
*387 FILLER_0_389
*388 FILLER_0_393
*389 FILLER_0_405
*390 FILLER_0_41
*391 FILLER_0_53
*392 FILLER_0_57
*393 FILLER_0_69
*394 FILLER_0_81
*395 FILLER_0_85
*396 FILLER_0_97
*397 FILLER_10_109
*398 FILLER_10_121
*399 FILLER_10_133
*400 FILLER_10_139
*401 FILLER_10_141
*402 FILLER_10_15
*403 FILLER_10_153
*404 FILLER_10_165
*405 FILLER_10_192
*406 FILLER_10_197
*407 FILLER_10_209
*408 FILLER_10_221
*409 FILLER_10_233
*410 FILLER_10_245
*411 FILLER_10_251
*412 FILLER_10_253
*413 FILLER_10_265
*414 FILLER_10_27
*415 FILLER_10_277
*416 FILLER_10_289
*417 FILLER_10_29
*418 FILLER_10_3
*419 FILLER_10_301
*420 FILLER_10_307
*421 FILLER_10_309
*422 FILLER_10_321
*423 FILLER_10_333
*424 FILLER_10_345
*425 FILLER_10_357
*426 FILLER_10_363
*427 FILLER_10_365
*428 FILLER_10_377
*429 FILLER_10_389
*430 FILLER_10_401
*431 FILLER_10_41
*432 FILLER_10_53
*433 FILLER_10_65
*434 FILLER_10_77
*435 FILLER_10_83
*436 FILLER_10_85
*437 FILLER_10_97
*438 FILLER_11_105
*439 FILLER_11_111
*440 FILLER_11_113
*441 FILLER_11_125
*442 FILLER_11_137
*443 FILLER_11_149
*444 FILLER_11_15
*445 FILLER_11_161
*446 FILLER_11_167
*447 FILLER_11_169
*448 FILLER_11_183
*449 FILLER_11_197
*450 FILLER_11_203
*451 FILLER_11_223
*452 FILLER_11_234
*453 FILLER_11_238
*454 FILLER_11_246
*455 FILLER_11_258
*456 FILLER_11_27
*457 FILLER_11_270
*458 FILLER_11_278
*459 FILLER_11_281
*460 FILLER_11_286
*461 FILLER_11_298
*462 FILLER_11_3
*463 FILLER_11_310
*464 FILLER_11_322
*465 FILLER_11_334
*466 FILLER_11_337
*467 FILLER_11_349
*468 FILLER_11_361
*469 FILLER_11_373
*470 FILLER_11_385
*471 FILLER_11_39
*472 FILLER_11_391
*473 FILLER_11_393
*474 FILLER_11_405
*475 FILLER_11_51
*476 FILLER_11_55
*477 FILLER_11_57
*478 FILLER_11_69
*479 FILLER_11_81
*480 FILLER_11_93
*481 FILLER_12_109
*482 FILLER_12_121
*483 FILLER_12_133
*484 FILLER_12_139
*485 FILLER_12_141
*486 FILLER_12_15
*487 FILLER_12_153
*488 FILLER_12_165
*489 FILLER_12_173
*490 FILLER_12_195
*491 FILLER_12_197
*492 FILLER_12_203
*493 FILLER_12_207
*494 FILLER_12_215
*495 FILLER_12_231
*496 FILLER_12_249
*497 FILLER_12_258
*498 FILLER_12_266
*499 FILLER_12_27
*500 FILLER_12_274
*501 FILLER_12_282
*502 FILLER_12_29
*503 FILLER_12_294
*504 FILLER_12_3
*505 FILLER_12_306
*506 FILLER_12_309
*507 FILLER_12_321
*508 FILLER_12_333
*509 FILLER_12_345
*510 FILLER_12_357
*511 FILLER_12_363
*512 FILLER_12_365
*513 FILLER_12_377
*514 FILLER_12_389
*515 FILLER_12_401
*516 FILLER_12_41
*517 FILLER_12_53
*518 FILLER_12_65
*519 FILLER_12_77
*520 FILLER_12_83
*521 FILLER_12_85
*522 FILLER_12_97
*523 FILLER_13_105
*524 FILLER_13_111
*525 FILLER_13_113
*526 FILLER_13_125
*527 FILLER_13_137
*528 FILLER_13_149
*529 FILLER_13_15
*530 FILLER_13_161
*531 FILLER_13_167
*532 FILLER_13_169
*533 FILLER_13_181
*534 FILLER_13_191
*535 FILLER_13_203
*536 FILLER_13_215
*537 FILLER_13_223
*538 FILLER_13_225
*539 FILLER_13_229
*540 FILLER_13_241
*541 FILLER_13_253
*542 FILLER_13_27
*543 FILLER_13_274
*544 FILLER_13_281
*545 FILLER_13_285
*546 FILLER_13_291
*547 FILLER_13_3
*548 FILLER_13_303
*549 FILLER_13_315
*550 FILLER_13_327
*551 FILLER_13_335
*552 FILLER_13_337
*553 FILLER_13_349
*554 FILLER_13_361
*555 FILLER_13_373
*556 FILLER_13_385
*557 FILLER_13_39
*558 FILLER_13_391
*559 FILLER_13_393
*560 FILLER_13_405
*561 FILLER_13_51
*562 FILLER_13_55
*563 FILLER_13_57
*564 FILLER_13_69
*565 FILLER_13_81
*566 FILLER_13_93
*567 FILLER_14_109
*568 FILLER_14_121
*569 FILLER_14_133
*570 FILLER_14_139
*571 FILLER_14_141
*572 FILLER_14_15
*573 FILLER_14_153
*574 FILLER_14_165
*575 FILLER_14_177
*576 FILLER_14_189
*577 FILLER_14_195
*578 FILLER_14_197
*579 FILLER_14_209
*580 FILLER_14_221
*581 FILLER_14_233
*582 FILLER_14_245
*583 FILLER_14_251
*584 FILLER_14_253
*585 FILLER_14_265
*586 FILLER_14_27
*587 FILLER_14_277
*588 FILLER_14_289
*589 FILLER_14_29
*590 FILLER_14_3
*591 FILLER_14_301
*592 FILLER_14_309
*593 FILLER_14_313
*594 FILLER_14_321
*595 FILLER_14_333
*596 FILLER_14_345
*597 FILLER_14_357
*598 FILLER_14_363
*599 FILLER_14_365
*600 FILLER_14_377
*601 FILLER_14_389
*602 FILLER_14_401
*603 FILLER_14_41
*604 FILLER_14_53
*605 FILLER_14_65
*606 FILLER_14_77
*607 FILLER_14_83
*608 FILLER_14_85
*609 FILLER_14_97
*610 FILLER_15_105
*611 FILLER_15_111
*612 FILLER_15_113
*613 FILLER_15_125
*614 FILLER_15_137
*615 FILLER_15_149
*616 FILLER_15_15
*617 FILLER_15_161
*618 FILLER_15_167
*619 FILLER_15_169
*620 FILLER_15_181
*621 FILLER_15_193
*622 FILLER_15_205
*623 FILLER_15_217
*624 FILLER_15_223
*625 FILLER_15_225
*626 FILLER_15_237
*627 FILLER_15_249
*628 FILLER_15_261
*629 FILLER_15_27
*630 FILLER_15_273
*631 FILLER_15_279
*632 FILLER_15_281
*633 FILLER_15_293
*634 FILLER_15_299
*635 FILLER_15_3
*636 FILLER_15_316
*637 FILLER_15_328
*638 FILLER_15_337
*639 FILLER_15_349
*640 FILLER_15_361
*641 FILLER_15_373
*642 FILLER_15_385
*643 FILLER_15_39
*644 FILLER_15_391
*645 FILLER_15_393
*646 FILLER_15_401
*647 FILLER_15_51
*648 FILLER_15_55
*649 FILLER_15_57
*650 FILLER_15_69
*651 FILLER_15_81
*652 FILLER_15_93
*653 FILLER_16_109
*654 FILLER_16_121
*655 FILLER_16_133
*656 FILLER_16_139
*657 FILLER_16_141
*658 FILLER_16_15
*659 FILLER_16_154
*660 FILLER_16_165
*661 FILLER_16_177
*662 FILLER_16_189
*663 FILLER_16_195
*664 FILLER_16_197
*665 FILLER_16_209
*666 FILLER_16_221
*667 FILLER_16_233
*668 FILLER_16_245
*669 FILLER_16_251
*670 FILLER_16_253
*671 FILLER_16_265
*672 FILLER_16_27
*673 FILLER_16_277
*674 FILLER_16_289
*675 FILLER_16_29
*676 FILLER_16_3
*677 FILLER_16_301
*678 FILLER_16_307
*679 FILLER_16_309
*680 FILLER_16_321
*681 FILLER_16_333
*682 FILLER_16_345
*683 FILLER_16_357
*684 FILLER_16_363
*685 FILLER_16_365
*686 FILLER_16_377
*687 FILLER_16_389
*688 FILLER_16_401
*689 FILLER_16_41
*690 FILLER_16_53
*691 FILLER_16_65
*692 FILLER_16_77
*693 FILLER_16_83
*694 FILLER_16_85
*695 FILLER_16_97
*696 FILLER_17_105
*697 FILLER_17_111
*698 FILLER_17_113
*699 FILLER_17_125
*700 FILLER_17_137
*701 FILLER_17_15
*702 FILLER_17_165
*703 FILLER_17_175
*704 FILLER_17_187
*705 FILLER_17_199
*706 FILLER_17_211
*707 FILLER_17_223
*708 FILLER_17_230
*709 FILLER_17_242
*710 FILLER_17_254
*711 FILLER_17_266
*712 FILLER_17_27
*713 FILLER_17_272
*714 FILLER_17_294
*715 FILLER_17_3
*716 FILLER_17_306
*717 FILLER_17_318
*718 FILLER_17_330
*719 FILLER_17_337
*720 FILLER_17_349
*721 FILLER_17_361
*722 FILLER_17_373
*723 FILLER_17_385
*724 FILLER_17_39
*725 FILLER_17_391
*726 FILLER_17_393
*727 FILLER_17_405
*728 FILLER_17_51
*729 FILLER_17_55
*730 FILLER_17_57
*731 FILLER_17_69
*732 FILLER_17_81
*733 FILLER_17_93
*734 FILLER_18_109
*735 FILLER_18_116
*736 FILLER_18_128
*737 FILLER_18_141
*738 FILLER_18_15
*739 FILLER_18_171
*740 FILLER_18_183
*741 FILLER_18_195
*742 FILLER_18_197
*743 FILLER_18_209
*744 FILLER_18_221
*745 FILLER_18_229
*746 FILLER_18_235
*747 FILLER_18_249
*748 FILLER_18_253
*749 FILLER_18_265
*750 FILLER_18_27
*751 FILLER_18_277
*752 FILLER_18_29
*753 FILLER_18_3
*754 FILLER_18_303
*755 FILLER_18_307
*756 FILLER_18_322
*757 FILLER_18_334
*758 FILLER_18_346
*759 FILLER_18_358
*760 FILLER_18_365
*761 FILLER_18_377
*762 FILLER_18_389
*763 FILLER_18_401
*764 FILLER_18_41
*765 FILLER_18_53
*766 FILLER_18_65
*767 FILLER_18_77
*768 FILLER_18_83
*769 FILLER_18_85
*770 FILLER_18_97
*771 FILLER_19_101
*772 FILLER_19_113
*773 FILLER_19_125
*774 FILLER_19_137
*775 FILLER_19_145
*776 FILLER_19_15
*777 FILLER_19_158
*778 FILLER_19_169
*779 FILLER_19_181
*780 FILLER_19_190
*781 FILLER_19_202
*782 FILLER_19_213
*783 FILLER_19_221
*784 FILLER_19_225
*785 FILLER_19_237
*786 FILLER_19_249
*787 FILLER_19_262
*788 FILLER_19_27
*789 FILLER_19_274
*790 FILLER_19_281
*791 FILLER_19_294
*792 FILLER_19_3
*793 FILLER_19_306
*794 FILLER_19_321
*795 FILLER_19_333
*796 FILLER_19_337
*797 FILLER_19_349
*798 FILLER_19_361
*799 FILLER_19_373
*800 FILLER_19_385
*801 FILLER_19_39
*802 FILLER_19_391
*803 FILLER_19_393
*804 FILLER_19_405
*805 FILLER_19_51
*806 FILLER_19_55
*807 FILLER_19_57
*808 FILLER_19_69
*809 FILLER_19_81
*810 FILLER_19_93
*811 FILLER_1_105
*812 FILLER_1_111
*813 FILLER_1_113
*814 FILLER_1_125
*815 FILLER_1_137
*816 FILLER_1_149
*817 FILLER_1_15
*818 FILLER_1_161
*819 FILLER_1_167
*820 FILLER_1_169
*821 FILLER_1_177
*822 FILLER_1_182
*823 FILLER_1_194
*824 FILLER_1_198
*825 FILLER_1_203
*826 FILLER_1_215
*827 FILLER_1_223
*828 FILLER_1_225
*829 FILLER_1_237
*830 FILLER_1_249
*831 FILLER_1_261
*832 FILLER_1_27
*833 FILLER_1_273
*834 FILLER_1_279
*835 FILLER_1_281
*836 FILLER_1_293
*837 FILLER_1_3
*838 FILLER_1_305
*839 FILLER_1_317
*840 FILLER_1_329
*841 FILLER_1_335
*842 FILLER_1_337
*843 FILLER_1_349
*844 FILLER_1_361
*845 FILLER_1_373
*846 FILLER_1_385
*847 FILLER_1_39
*848 FILLER_1_391
*849 FILLER_1_393
*850 FILLER_1_405
*851 FILLER_1_51
*852 FILLER_1_55
*853 FILLER_1_57
*854 FILLER_1_69
*855 FILLER_1_81
*856 FILLER_1_93
*857 FILLER_20_123
*858 FILLER_20_135
*859 FILLER_20_139
*860 FILLER_20_15
*861 FILLER_20_172
*862 FILLER_20_184
*863 FILLER_20_195
*864 FILLER_20_197
*865 FILLER_20_209
*866 FILLER_20_216
*867 FILLER_20_228
*868 FILLER_20_236
*869 FILLER_20_241
*870 FILLER_20_249
*871 FILLER_20_253
*872 FILLER_20_27
*873 FILLER_20_270
*874 FILLER_20_282
*875 FILLER_20_29
*876 FILLER_20_294
*877 FILLER_20_3
*878 FILLER_20_306
*879 FILLER_20_309
*880 FILLER_20_321
*881 FILLER_20_333
*882 FILLER_20_345
*883 FILLER_20_357
*884 FILLER_20_363
*885 FILLER_20_365
*886 FILLER_20_377
*887 FILLER_20_389
*888 FILLER_20_401
*889 FILLER_20_41
*890 FILLER_20_53
*891 FILLER_20_65
*892 FILLER_20_77
*893 FILLER_20_83
*894 FILLER_20_85
*895 FILLER_21_101
*896 FILLER_21_110
*897 FILLER_21_117
*898 FILLER_21_129
*899 FILLER_21_141
*900 FILLER_21_147
*901 FILLER_21_15
*902 FILLER_21_165
*903 FILLER_21_169
*904 FILLER_21_181
*905 FILLER_21_189
*906 FILLER_21_200
*907 FILLER_21_211
*908 FILLER_21_223
*909 FILLER_21_225
*910 FILLER_21_237
*911 FILLER_21_249
*912 FILLER_21_261
*913 FILLER_21_27
*914 FILLER_21_273
*915 FILLER_21_279
*916 FILLER_21_281
*917 FILLER_21_293
*918 FILLER_21_3
*919 FILLER_21_305
*920 FILLER_21_317
*921 FILLER_21_329
*922 FILLER_21_335
*923 FILLER_21_337
*924 FILLER_21_349
*925 FILLER_21_361
*926 FILLER_21_373
*927 FILLER_21_385
*928 FILLER_21_39
*929 FILLER_21_391
*930 FILLER_21_393
*931 FILLER_21_397
*932 FILLER_21_51
*933 FILLER_21_55
*934 FILLER_21_57
*935 FILLER_21_69
*936 FILLER_21_81
*937 FILLER_21_93
*938 FILLER_22_109
*939 FILLER_22_121
*940 FILLER_22_133
*941 FILLER_22_139
*942 FILLER_22_141
*943 FILLER_22_147
*944 FILLER_22_15
*945 FILLER_22_155
*946 FILLER_22_167
*947 FILLER_22_179
*948 FILLER_22_191
*949 FILLER_22_195
*950 FILLER_22_197
*951 FILLER_22_209
*952 FILLER_22_221
*953 FILLER_22_233
*954 FILLER_22_253
*955 FILLER_22_265
*956 FILLER_22_27
*957 FILLER_22_277
*958 FILLER_22_289
*959 FILLER_22_29
*960 FILLER_22_3
*961 FILLER_22_301
*962 FILLER_22_307
*963 FILLER_22_309
*964 FILLER_22_321
*965 FILLER_22_333
*966 FILLER_22_345
*967 FILLER_22_357
*968 FILLER_22_363
*969 FILLER_22_365
*970 FILLER_22_377
*971 FILLER_22_389
*972 FILLER_22_401
*973 FILLER_22_41
*974 FILLER_22_53
*975 FILLER_22_65
*976 FILLER_22_77
*977 FILLER_22_83
*978 FILLER_22_85
*979 FILLER_22_97
*980 FILLER_23_101
*981 FILLER_23_108
*982 FILLER_23_113
*983 FILLER_23_125
*984 FILLER_23_137
*985 FILLER_23_149
*986 FILLER_23_15
*987 FILLER_23_161
*988 FILLER_23_167
*989 FILLER_23_169
*990 FILLER_23_181
*991 FILLER_23_193
*992 FILLER_23_205
*993 FILLER_23_217
*994 FILLER_23_223
*995 FILLER_23_225
*996 FILLER_23_237
*997 FILLER_23_245
*998 FILLER_23_253
*999 FILLER_23_265
*1000 FILLER_23_27
*1001 FILLER_23_273
*1002 FILLER_23_288
*1003 FILLER_23_3
*1004 FILLER_23_301
*1005 FILLER_23_312
*1006 FILLER_23_324
*1007 FILLER_23_337
*1008 FILLER_23_349
*1009 FILLER_23_361
*1010 FILLER_23_373
*1011 FILLER_23_385
*1012 FILLER_23_39
*1013 FILLER_23_391
*1014 FILLER_23_393
*1015 FILLER_23_405
*1016 FILLER_23_51
*1017 FILLER_23_55
*1018 FILLER_23_57
*1019 FILLER_23_69
*1020 FILLER_23_81
*1021 FILLER_23_93
*1022 FILLER_24_116
*1023 FILLER_24_128
*1024 FILLER_24_141
*1025 FILLER_24_15
*1026 FILLER_24_153
*1027 FILLER_24_165
*1028 FILLER_24_177
*1029 FILLER_24_189
*1030 FILLER_24_195
*1031 FILLER_24_213
*1032 FILLER_24_221
*1033 FILLER_24_228
*1034 FILLER_24_236
*1035 FILLER_24_245
*1036 FILLER_24_251
*1037 FILLER_24_253
*1038 FILLER_24_265
*1039 FILLER_24_27
*1040 FILLER_24_271
*1041 FILLER_24_278
*1042 FILLER_24_29
*1043 FILLER_24_290
*1044 FILLER_24_3
*1045 FILLER_24_302
*1046 FILLER_24_335
*1047 FILLER_24_347
*1048 FILLER_24_359
*1049 FILLER_24_363
*1050 FILLER_24_365
*1051 FILLER_24_377
*1052 FILLER_24_389
*1053 FILLER_24_401
*1054 FILLER_24_41
*1055 FILLER_24_53
*1056 FILLER_24_65
*1057 FILLER_24_77
*1058 FILLER_24_83
*1059 FILLER_24_85
*1060 FILLER_25_105
*1061 FILLER_25_111
*1062 FILLER_25_113
*1063 FILLER_25_134
*1064 FILLER_25_146
*1065 FILLER_25_15
*1066 FILLER_25_167
*1067 FILLER_25_169
*1068 FILLER_25_181
*1069 FILLER_25_208
*1070 FILLER_25_220
*1071 FILLER_25_232
*1072 FILLER_25_244
*1073 FILLER_25_256
*1074 FILLER_25_268
*1075 FILLER_25_27
*1076 FILLER_25_281
*1077 FILLER_25_293
*1078 FILLER_25_3
*1079 FILLER_25_305
*1080 FILLER_25_317
*1081 FILLER_25_329
*1082 FILLER_25_335
*1083 FILLER_25_337
*1084 FILLER_25_349
*1085 FILLER_25_361
*1086 FILLER_25_373
*1087 FILLER_25_385
*1088 FILLER_25_39
*1089 FILLER_25_391
*1090 FILLER_25_393
*1091 FILLER_25_397
*1092 FILLER_25_51
*1093 FILLER_25_55
*1094 FILLER_25_57
*1095 FILLER_25_69
*1096 FILLER_25_81
*1097 FILLER_25_93
*1098 FILLER_26_109
*1099 FILLER_26_126
*1100 FILLER_26_138
*1101 FILLER_26_141
*1102 FILLER_26_15
*1103 FILLER_26_153
*1104 FILLER_26_165
*1105 FILLER_26_177
*1106 FILLER_26_189
*1107 FILLER_26_195
*1108 FILLER_26_197
*1109 FILLER_26_208
*1110 FILLER_26_220
*1111 FILLER_26_232
*1112 FILLER_26_244
*1113 FILLER_26_253
*1114 FILLER_26_261
*1115 FILLER_26_266
*1116 FILLER_26_27
*1117 FILLER_26_278
*1118 FILLER_26_29
*1119 FILLER_26_291
*1120 FILLER_26_3
*1121 FILLER_26_303
*1122 FILLER_26_307
*1123 FILLER_26_309
*1124 FILLER_26_321
*1125 FILLER_26_333
*1126 FILLER_26_345
*1127 FILLER_26_357
*1128 FILLER_26_363
*1129 FILLER_26_365
*1130 FILLER_26_377
*1131 FILLER_26_389
*1132 FILLER_26_401
*1133 FILLER_26_41
*1134 FILLER_26_53
*1135 FILLER_26_65
*1136 FILLER_26_77
*1137 FILLER_26_83
*1138 FILLER_26_85
*1139 FILLER_26_97
*1140 FILLER_27_105
*1141 FILLER_27_111
*1142 FILLER_27_113
*1143 FILLER_27_125
*1144 FILLER_27_137
*1145 FILLER_27_149
*1146 FILLER_27_15
*1147 FILLER_27_161
*1148 FILLER_27_167
*1149 FILLER_27_169
*1150 FILLER_27_181
*1151 FILLER_27_189
*1152 FILLER_27_205
*1153 FILLER_27_217
*1154 FILLER_27_234
*1155 FILLER_27_246
*1156 FILLER_27_258
*1157 FILLER_27_264
*1158 FILLER_27_27
*1159 FILLER_27_274
*1160 FILLER_27_291
*1161 FILLER_27_3
*1162 FILLER_27_303
*1163 FILLER_27_315
*1164 FILLER_27_327
*1165 FILLER_27_335
*1166 FILLER_27_337
*1167 FILLER_27_349
*1168 FILLER_27_361
*1169 FILLER_27_373
*1170 FILLER_27_385
*1171 FILLER_27_39
*1172 FILLER_27_391
*1173 FILLER_27_393
*1174 FILLER_27_405
*1175 FILLER_27_51
*1176 FILLER_27_55
*1177 FILLER_27_57
*1178 FILLER_27_69
*1179 FILLER_27_81
*1180 FILLER_27_93
*1181 FILLER_28_109
*1182 FILLER_28_121
*1183 FILLER_28_133
*1184 FILLER_28_139
*1185 FILLER_28_141
*1186 FILLER_28_15
*1187 FILLER_28_153
*1188 FILLER_28_171
*1189 FILLER_28_195
*1190 FILLER_28_197
*1191 FILLER_28_209
*1192 FILLER_28_221
*1193 FILLER_28_241
*1194 FILLER_28_249
*1195 FILLER_28_253
*1196 FILLER_28_265
*1197 FILLER_28_27
*1198 FILLER_28_277
*1199 FILLER_28_289
*1200 FILLER_28_29
*1201 FILLER_28_3
*1202 FILLER_28_301
*1203 FILLER_28_307
*1204 FILLER_28_309
*1205 FILLER_28_321
*1206 FILLER_28_333
*1207 FILLER_28_345
*1208 FILLER_28_357
*1209 FILLER_28_363
*1210 FILLER_28_365
*1211 FILLER_28_377
*1212 FILLER_28_389
*1213 FILLER_28_401
*1214 FILLER_28_41
*1215 FILLER_28_53
*1216 FILLER_28_65
*1217 FILLER_28_77
*1218 FILLER_28_83
*1219 FILLER_28_85
*1220 FILLER_28_97
*1221 FILLER_29_105
*1222 FILLER_29_111
*1223 FILLER_29_113
*1224 FILLER_29_117
*1225 FILLER_29_125
*1226 FILLER_29_137
*1227 FILLER_29_149
*1228 FILLER_29_15
*1229 FILLER_29_161
*1230 FILLER_29_167
*1231 FILLER_29_169
*1232 FILLER_29_177
*1233 FILLER_29_197
*1234 FILLER_29_209
*1235 FILLER_29_221
*1236 FILLER_29_240
*1237 FILLER_29_252
*1238 FILLER_29_260
*1239 FILLER_29_27
*1240 FILLER_29_272
*1241 FILLER_29_281
*1242 FILLER_29_3
*1243 FILLER_29_303
*1244 FILLER_29_315
*1245 FILLER_29_327
*1246 FILLER_29_335
*1247 FILLER_29_337
*1248 FILLER_29_349
*1249 FILLER_29_361
*1250 FILLER_29_373
*1251 FILLER_29_385
*1252 FILLER_29_39
*1253 FILLER_29_391
*1254 FILLER_29_393
*1255 FILLER_29_405
*1256 FILLER_29_51
*1257 FILLER_29_55
*1258 FILLER_29_57
*1259 FILLER_29_69
*1260 FILLER_29_81
*1261 FILLER_29_93
*1262 FILLER_2_109
*1263 FILLER_2_121
*1264 FILLER_2_133
*1265 FILLER_2_139
*1266 FILLER_2_141
*1267 FILLER_2_149
*1268 FILLER_2_15
*1269 FILLER_2_155
*1270 FILLER_2_163
*1271 FILLER_2_192
*1272 FILLER_2_197
*1273 FILLER_2_210
*1274 FILLER_2_222
*1275 FILLER_2_234
*1276 FILLER_2_246
*1277 FILLER_2_253
*1278 FILLER_2_265
*1279 FILLER_2_27
*1280 FILLER_2_277
*1281 FILLER_2_289
*1282 FILLER_2_29
*1283 FILLER_2_3
*1284 FILLER_2_301
*1285 FILLER_2_307
*1286 FILLER_2_309
*1287 FILLER_2_321
*1288 FILLER_2_333
*1289 FILLER_2_345
*1290 FILLER_2_357
*1291 FILLER_2_363
*1292 FILLER_2_365
*1293 FILLER_2_377
*1294 FILLER_2_389
*1295 FILLER_2_401
*1296 FILLER_2_41
*1297 FILLER_2_53
*1298 FILLER_2_65
*1299 FILLER_2_77
*1300 FILLER_2_83
*1301 FILLER_2_85
*1302 FILLER_2_97
*1303 FILLER_30_109
*1304 FILLER_30_121
*1305 FILLER_30_139
*1306 FILLER_30_141
*1307 FILLER_30_15
*1308 FILLER_30_153
*1309 FILLER_30_165
*1310 FILLER_30_177
*1311 FILLER_30_189
*1312 FILLER_30_195
*1313 FILLER_30_197
*1314 FILLER_30_209
*1315 FILLER_30_221
*1316 FILLER_30_233
*1317 FILLER_30_245
*1318 FILLER_30_251
*1319 FILLER_30_253
*1320 FILLER_30_265
*1321 FILLER_30_27
*1322 FILLER_30_277
*1323 FILLER_30_289
*1324 FILLER_30_29
*1325 FILLER_30_3
*1326 FILLER_30_301
*1327 FILLER_30_307
*1328 FILLER_30_316
*1329 FILLER_30_328
*1330 FILLER_30_340
*1331 FILLER_30_352
*1332 FILLER_30_365
*1333 FILLER_30_377
*1334 FILLER_30_389
*1335 FILLER_30_401
*1336 FILLER_30_41
*1337 FILLER_30_53
*1338 FILLER_30_65
*1339 FILLER_30_77
*1340 FILLER_30_83
*1341 FILLER_30_85
*1342 FILLER_30_97
*1343 FILLER_31_105
*1344 FILLER_31_111
*1345 FILLER_31_113
*1346 FILLER_31_121
*1347 FILLER_31_139
*1348 FILLER_31_15
*1349 FILLER_31_153
*1350 FILLER_31_165
*1351 FILLER_31_169
*1352 FILLER_31_181
*1353 FILLER_31_193
*1354 FILLER_31_205
*1355 FILLER_31_217
*1356 FILLER_31_223
*1357 FILLER_31_225
*1358 FILLER_31_237
*1359 FILLER_31_248
*1360 FILLER_31_260
*1361 FILLER_31_27
*1362 FILLER_31_272
*1363 FILLER_31_281
*1364 FILLER_31_293
*1365 FILLER_31_3
*1366 FILLER_31_305
*1367 FILLER_31_317
*1368 FILLER_31_329
*1369 FILLER_31_335
*1370 FILLER_31_337
*1371 FILLER_31_349
*1372 FILLER_31_361
*1373 FILLER_31_373
*1374 FILLER_31_385
*1375 FILLER_31_39
*1376 FILLER_31_391
*1377 FILLER_31_393
*1378 FILLER_31_405
*1379 FILLER_31_51
*1380 FILLER_31_55
*1381 FILLER_31_57
*1382 FILLER_31_69
*1383 FILLER_31_81
*1384 FILLER_31_93
*1385 FILLER_32_109
*1386 FILLER_32_121
*1387 FILLER_32_129
*1388 FILLER_32_133
*1389 FILLER_32_141
*1390 FILLER_32_15
*1391 FILLER_32_157
*1392 FILLER_32_169
*1393 FILLER_32_181
*1394 FILLER_32_193
*1395 FILLER_32_197
*1396 FILLER_32_209
*1397 FILLER_32_221
*1398 FILLER_32_225
*1399 FILLER_32_238
*1400 FILLER_32_248
*1401 FILLER_32_253
*1402 FILLER_32_257
*1403 FILLER_32_265
*1404 FILLER_32_27
*1405 FILLER_32_277
*1406 FILLER_32_289
*1407 FILLER_32_29
*1408 FILLER_32_3
*1409 FILLER_32_301
*1410 FILLER_32_307
*1411 FILLER_32_309
*1412 FILLER_32_321
*1413 FILLER_32_333
*1414 FILLER_32_345
*1415 FILLER_32_357
*1416 FILLER_32_363
*1417 FILLER_32_365
*1418 FILLER_32_377
*1419 FILLER_32_389
*1420 FILLER_32_401
*1421 FILLER_32_41
*1422 FILLER_32_53
*1423 FILLER_32_65
*1424 FILLER_32_77
*1425 FILLER_32_83
*1426 FILLER_32_85
*1427 FILLER_32_97
*1428 FILLER_33_105
*1429 FILLER_33_111
*1430 FILLER_33_113
*1431 FILLER_33_125
*1432 FILLER_33_137
*1433 FILLER_33_15
*1434 FILLER_33_154
*1435 FILLER_33_166
*1436 FILLER_33_169
*1437 FILLER_33_181
*1438 FILLER_33_189
*1439 FILLER_33_200
*1440 FILLER_33_212
*1441 FILLER_33_216
*1442 FILLER_33_220
*1443 FILLER_33_225
*1444 FILLER_33_237
*1445 FILLER_33_249
*1446 FILLER_33_261
*1447 FILLER_33_27
*1448 FILLER_33_273
*1449 FILLER_33_279
*1450 FILLER_33_281
*1451 FILLER_33_293
*1452 FILLER_33_3
*1453 FILLER_33_305
*1454 FILLER_33_317
*1455 FILLER_33_329
*1456 FILLER_33_335
*1457 FILLER_33_337
*1458 FILLER_33_349
*1459 FILLER_33_361
*1460 FILLER_33_373
*1461 FILLER_33_385
*1462 FILLER_33_39
*1463 FILLER_33_391
*1464 FILLER_33_393
*1465 FILLER_33_405
*1466 FILLER_33_51
*1467 FILLER_33_55
*1468 FILLER_33_57
*1469 FILLER_33_69
*1470 FILLER_33_81
*1471 FILLER_33_93
*1472 FILLER_34_109
*1473 FILLER_34_121
*1474 FILLER_34_133
*1475 FILLER_34_139
*1476 FILLER_34_15
*1477 FILLER_34_150
*1478 FILLER_34_162
*1479 FILLER_34_170
*1480 FILLER_34_186
*1481 FILLER_34_194
*1482 FILLER_34_207
*1483 FILLER_34_219
*1484 FILLER_34_231
*1485 FILLER_34_243
*1486 FILLER_34_251
*1487 FILLER_34_253
*1488 FILLER_34_265
*1489 FILLER_34_27
*1490 FILLER_34_283
*1491 FILLER_34_29
*1492 FILLER_34_295
*1493 FILLER_34_3
*1494 FILLER_34_307
*1495 FILLER_34_309
*1496 FILLER_34_321
*1497 FILLER_34_333
*1498 FILLER_34_345
*1499 FILLER_34_357
*1500 FILLER_34_363
*1501 FILLER_34_365
*1502 FILLER_34_377
*1503 FILLER_34_389
*1504 FILLER_34_401
*1505 FILLER_34_41
*1506 FILLER_34_53
*1507 FILLER_34_65
*1508 FILLER_34_77
*1509 FILLER_34_83
*1510 FILLER_34_85
*1511 FILLER_34_97
*1512 FILLER_35_105
*1513 FILLER_35_111
*1514 FILLER_35_113
*1515 FILLER_35_125
*1516 FILLER_35_137
*1517 FILLER_35_149
*1518 FILLER_35_15
*1519 FILLER_35_161
*1520 FILLER_35_167
*1521 FILLER_35_169
*1522 FILLER_35_177
*1523 FILLER_35_193
*1524 FILLER_35_208
*1525 FILLER_35_220
*1526 FILLER_35_230
*1527 FILLER_35_242
*1528 FILLER_35_254
*1529 FILLER_35_266
*1530 FILLER_35_27
*1531 FILLER_35_273
*1532 FILLER_35_279
*1533 FILLER_35_281
*1534 FILLER_35_293
*1535 FILLER_35_3
*1536 FILLER_35_305
*1537 FILLER_35_317
*1538 FILLER_35_329
*1539 FILLER_35_335
*1540 FILLER_35_337
*1541 FILLER_35_349
*1542 FILLER_35_361
*1543 FILLER_35_373
*1544 FILLER_35_385
*1545 FILLER_35_39
*1546 FILLER_35_391
*1547 FILLER_35_393
*1548 FILLER_35_405
*1549 FILLER_35_51
*1550 FILLER_35_55
*1551 FILLER_35_57
*1552 FILLER_35_69
*1553 FILLER_35_81
*1554 FILLER_35_93
*1555 FILLER_36_110
*1556 FILLER_36_122
*1557 FILLER_36_134
*1558 FILLER_36_141
*1559 FILLER_36_15
*1560 FILLER_36_153
*1561 FILLER_36_165
*1562 FILLER_36_177
*1563 FILLER_36_189
*1564 FILLER_36_195
*1565 FILLER_36_197
*1566 FILLER_36_209
*1567 FILLER_36_217
*1568 FILLER_36_223
*1569 FILLER_36_235
*1570 FILLER_36_247
*1571 FILLER_36_251
*1572 FILLER_36_253
*1573 FILLER_36_265
*1574 FILLER_36_27
*1575 FILLER_36_273
*1576 FILLER_36_29
*1577 FILLER_36_290
*1578 FILLER_36_3
*1579 FILLER_36_302
*1580 FILLER_36_309
*1581 FILLER_36_321
*1582 FILLER_36_333
*1583 FILLER_36_345
*1584 FILLER_36_357
*1585 FILLER_36_363
*1586 FILLER_36_365
*1587 FILLER_36_377
*1588 FILLER_36_389
*1589 FILLER_36_401
*1590 FILLER_36_41
*1591 FILLER_36_53
*1592 FILLER_36_65
*1593 FILLER_36_77
*1594 FILLER_36_83
*1595 FILLER_36_85
*1596 FILLER_37_108
*1597 FILLER_37_113
*1598 FILLER_37_125
*1599 FILLER_37_137
*1600 FILLER_37_149
*1601 FILLER_37_15
*1602 FILLER_37_161
*1603 FILLER_37_167
*1604 FILLER_37_169
*1605 FILLER_37_177
*1606 FILLER_37_192
*1607 FILLER_37_204
*1608 FILLER_37_216
*1609 FILLER_37_234
*1610 FILLER_37_246
*1611 FILLER_37_258
*1612 FILLER_37_27
*1613 FILLER_37_270
*1614 FILLER_37_278
*1615 FILLER_37_281
*1616 FILLER_37_293
*1617 FILLER_37_3
*1618 FILLER_37_305
*1619 FILLER_37_317
*1620 FILLER_37_329
*1621 FILLER_37_335
*1622 FILLER_37_337
*1623 FILLER_37_349
*1624 FILLER_37_361
*1625 FILLER_37_373
*1626 FILLER_37_385
*1627 FILLER_37_39
*1628 FILLER_37_391
*1629 FILLER_37_393
*1630 FILLER_37_405
*1631 FILLER_37_51
*1632 FILLER_37_55
*1633 FILLER_37_57
*1634 FILLER_37_69
*1635 FILLER_37_81
*1636 FILLER_37_89
*1637 FILLER_38_113
*1638 FILLER_38_125
*1639 FILLER_38_137
*1640 FILLER_38_141
*1641 FILLER_38_15
*1642 FILLER_38_155
*1643 FILLER_38_167
*1644 FILLER_38_179
*1645 FILLER_38_191
*1646 FILLER_38_195
*1647 FILLER_38_197
*1648 FILLER_38_209
*1649 FILLER_38_221
*1650 FILLER_38_233
*1651 FILLER_38_245
*1652 FILLER_38_251
*1653 FILLER_38_253
*1654 FILLER_38_265
*1655 FILLER_38_269
*1656 FILLER_38_27
*1657 FILLER_38_288
*1658 FILLER_38_29
*1659 FILLER_38_3
*1660 FILLER_38_300
*1661 FILLER_38_309
*1662 FILLER_38_321
*1663 FILLER_38_333
*1664 FILLER_38_345
*1665 FILLER_38_357
*1666 FILLER_38_363
*1667 FILLER_38_365
*1668 FILLER_38_377
*1669 FILLER_38_389
*1670 FILLER_38_401
*1671 FILLER_38_41
*1672 FILLER_38_53
*1673 FILLER_38_65
*1674 FILLER_38_77
*1675 FILLER_38_83
*1676 FILLER_38_85
*1677 FILLER_38_93
*1678 FILLER_39_111
*1679 FILLER_39_113
*1680 FILLER_39_125
*1681 FILLER_39_137
*1682 FILLER_39_147
*1683 FILLER_39_156
*1684 FILLER_39_169
*1685 FILLER_39_181
*1686 FILLER_39_193
*1687 FILLER_39_205
*1688 FILLER_39_21
*1689 FILLER_39_217
*1690 FILLER_39_223
*1691 FILLER_39_225
*1692 FILLER_39_244
*1693 FILLER_39_256
*1694 FILLER_39_268
*1695 FILLER_39_281
*1696 FILLER_39_293
*1697 FILLER_39_305
*1698 FILLER_39_317
*1699 FILLER_39_329
*1700 FILLER_39_33
*1701 FILLER_39_335
*1702 FILLER_39_337
*1703 FILLER_39_349