*SPEF "ieee 1481-1999"
*DESIGN "SARSA_RUIDO_VENTAJA_e5"
*DATE "18:06:36 Tuesday September 16, 2025"
*VENDOR "The OpenROAD Project"
*PROGRAM "OpenROAD"
*VERSION "edf00dff99f6c40d67a30c0e22a8191c5d2ed9d6"
*DESIGN_FLOW "NAME_SCOPE LOCAL" "PIN_CAP NONE"
*DIVIDER /
*DELIMITER :
*BUS_DELIMITER []
*T_UNIT 1 NS
*C_UNIT 1 PF
*R_UNIT 1 OHM
*L_UNIT 1 HENRY

*NAME_MAP
*1 A[0]
*2 A[1]
*3 B[0]
*4 B[1]
*5 P[0]
*6 P[1]
*7 P[2]
*8 P[3]
*11 _0_
*12 _1_
*13 net1
*14 net2
*15 net3
*16 net4
*17 net5
*18 net6
*19 net7
*20 net8
*21 FILLER_0_15
*22 FILLER_0_27
*23 FILLER_0_29
*24 FILLER_0_3
*25 FILLER_0_41
*26 FILLER_0_53
*27 FILLER_0_57
*28 FILLER_0_69
*29 FILLER_1_15
*30 FILLER_1_27
*31 FILLER_1_3
*32 FILLER_1_39
*33 FILLER_1_51
*34 FILLER_1_55
*35 FILLER_1_57
*36 FILLER_1_69
*37 FILLER_2_18
*38 FILLER_2_26
*39 FILLER_2_29
*40 FILLER_2_41
*41 FILLER_2_53
*42 FILLER_2_6
*43 FILLER_2_65
*44 FILLER_2_77
*45 FILLER_3_15
*46 FILLER_3_27
*47 FILLER_3_3
*48 FILLER_3_39
*49 FILLER_3_51
*50 FILLER_3_55
*51 FILLER_3_57
*52 FILLER_3_69
*53 FILLER_4_24
*54 FILLER_4_29
*55 FILLER_4_41
*56 FILLER_4_53
*57 FILLER_4_6
*58 FILLER_4_61
*59 FILLER_4_70
*60 FILLER_5_17
*61 FILLER_5_21
*62 FILLER_5_33
*63 FILLER_5_45
*64 FILLER_5_53
*65 FILLER_5_57
*66 FILLER_5_69
*67 FILLER_5_7
*68 FILLER_6_19
*69 FILLER_6_27
*70 FILLER_6_29
*71 FILLER_6_41
*72 FILLER_6_53
*73 FILLER_6_65
*74 FILLER_6_7
*75 FILLER_6_77
*76 FILLER_7_19
*77 FILLER_7_31
*78 FILLER_7_43
*79 FILLER_7_55
*80 FILLER_7_57
*81 FILLER_7_69
*82 FILLER_7_7
*83 FILLER_8_15
*84 FILLER_8_27
*85 FILLER_8_29
*86 FILLER_8_3
*87 FILLER_8_41
*88 FILLER_8_53
*89 FILLER_8_65
*90 FILLER_8_77
*91 FILLER_9_15
*92 FILLER_9_27
*93 FILLER_9_29
*94 FILLER_9_3
*95 FILLER_9_41
*96 FILLER_9_53
*97 FILLER_9_57
*98 FILLER_9_69
*99 PHY_EDGE_ROW_0_Left_10
*100 PHY_EDGE_ROW_0_Right_0
*101 PHY_EDGE_ROW_1_Left_11
*102 PHY_EDGE_ROW_1_Right_1
*103 PHY_EDGE_ROW_2_Left_12
*104 PHY_EDGE_ROW_2_Right_2
*105 PHY_EDGE_ROW_3_Left_13
*106 PHY_EDGE_ROW_3_Right_3
*107 PHY_EDGE_ROW_4_Left_14
*108 PHY_EDGE_ROW_4_Right_4
*109 PHY_EDGE_ROW_5_Left_15
*110 PHY_EDGE_ROW_5_Right_5
*111 PHY_EDGE_ROW_6_Left_16
*112 PHY_EDGE_ROW_6_Right_6
*113 PHY_EDGE_ROW_7_Left_17
*114 PHY_EDGE_ROW_7_Right_7
*115 PHY_EDGE_ROW_8_Left_18
*116 PHY_EDGE_ROW_8_Right_8
*117 PHY_EDGE_ROW_9_Left_19
*118 PHY_EDGE_ROW_9_Right_9
*119 TAP_TAPCELL_ROW_0_20
*120 TAP_TAPCELL_ROW_0_21
*121 TAP_TAPCELL_ROW_1_22
*122 TAP_TAPCELL_ROW_2_23
*123 TAP_TAPCELL_ROW_3_24
*124 TAP_TAPCELL_ROW_4_25
*125 TAP_TAPCELL_ROW_5_26
*126 TAP_TAPCELL_ROW_6_27
*127 TAP_TAPCELL_ROW_7_28
*128 TAP_TAPCELL_ROW_8_29
*129 TAP_TAPCELL_ROW_9_30
*130 TAP_TAPCELL_ROW_9_31
*131 _2_
*132 _3_
*133 _4_
*134 _5_
*135 _6_
*136 _7_
*137 input1
*138 input2
*139 input3
*140 input4
*141 output5
*142 output6
*143 output7
*144 output8

*PORTS
A[0] I
A[1] I
B[0] I
B[1] I
P[0] O
P[1] O
P[2] O
P[3] O

*D_NET *1 0.000618322
*CONN
*P A[0] I
*I *137:A I *D sky130_fd_sc_hd__buf_1
*CAP
1 A[0] 0.000295572
2 *137:A 0.000295572
3 *137:A *139:A 2.71788e-05
*RES
1 A[0] *137:A 20.7838 
*END

*D_NET *2 0.000498079
*CONN
*P A[1] I
*I *138:A I *D sky130_fd_sc_hd__buf_1
*CAP
1 A[1] 0.000200075
2 *138:A 0.000200075
3 *138:A P[1] 8.57347e-05
4 *138:A *14:12 1.21955e-05
*RES
1 A[1] *138:A 18.73 
*END

*D_NET *3 0.000699525
*CONN
*P B[0] I
*I *139:A I *D sky130_fd_sc_hd__clkbuf_1
*CAP
1 B[0] 0.000321177
2 *139:A 0.000321177
3 *139:A P[2] 2.99915e-05
4 *137:A *139:A 2.71788e-05
*RES
1 B[0] *139:A 21.6946 
*END

*D_NET *4 0.000643302
*CONN
*P B[1] I
*I *140:A I *D sky130_fd_sc_hd__dlymetal6s2s_1
*CAP
1 B[1] 0.00028007
2 *140:A 0.00028007
3 *140:A P[1] 8.31618e-05
*RES
1 B[1] *140:A 19.9443 
*END

*D_NET *5 0.00072306
*CONN
*P P[0] O
*I *141:X O *D sky130_fd_sc_hd__buf_2
*CAP
1 P[0] 0.000345561
2 *141:X 0.000345561
3 P[0] P[3] 3.19385e-05
*RES
1 *141:X P[0] 20.891 
*END

*D_NET *6 0.000611242
*CONN
*P P[1] O
*I *142:X O *D sky130_fd_sc_hd__buf_2
*CAP
1 P[1] 0.000187356
2 *142:X 0.000187356
3 P[1] *14:12 6.76337e-05
4 *138:A P[1] 8.57347e-05
5 *140:A P[1] 8.31618e-05
*RES
1 *142:X P[1] 18.8021 
*END

*D_NET *7 0.000725588
*CONN
*P P[2] O
*I *143:X O *D sky130_fd_sc_hd__buf_2
*CAP
1 P[2] 0.000333414
2 *143:X 0.000333414
3 P[2] P[3] 2.87684e-05
4 *139:A P[2] 2.99915e-05
*RES
1 *143:X P[2] 20.891 
*END

*D_NET *8 0.000512747
*CONN
*P P[3] O
*I *144:X O *D sky130_fd_sc_hd__buf_2
*CAP
1 P[3] 0.000221218
2 *144:X 0.000221218
3 P[3] *141:A 9.60337e-06
4 P[0] P[3] 3.19385e-05
5 P[2] P[3] 2.87684e-05
*RES
1 *144:X P[3] 18.1949 
*END

*D_NET *11 0.000777466
*CONN
*I *136:C I *D sky130_fd_sc_hd__and3_1
*I *132:Y O *D sky130_fd_sc_hd__nand2_1
*CAP
1 *136:C 0.00021807
2 *132:Y 0.00021807
3 *136:C *133:A 7.08238e-05
4 *136:C *133:B 0.000125057
5 *136:C *133:C 7.03393e-05
6 *136:C *136:A 0
7 *136:C *15:8 3.18676e-05
8 *136:C *16:19 1.13708e-05
9 *136:C *20:10 3.18676e-05
*RES
1 *132:Y *136:C 23.9571 
*END

*D_NET *12 0.000297042
*CONN
*I *134:A1 I *D sky130_fd_sc_hd__a21o_1
*I *131:Y O *D sky130_fd_sc_hd__inv_2
*CAP
1 *134:A1 8.47824e-05
2 *131:Y 8.47824e-05
3 *134:A1 *134:A2 5.71472e-05
4 *134:A1 *143:A 7.03295e-05
*RES
1 *131:Y *134:A1 20.3679 
*END

*D_NET *13 0.00207011
*CONN
*I *132:B I *D sky130_fd_sc_hd__nand2_1
*I *133:D I *D sky130_fd_sc_hd__and4_1
*I *134:A2 I *D sky130_fd_sc_hd__a21o_1
*I *137:X O *D sky130_fd_sc_hd__buf_1
*CAP
1 *132:B 4.70602e-05
2 *133:D 0
3 *134:A2 0.000170395
4 *137:X 0.000354719
5 *13:14 0.000319211
6 *13:10 0.000550595
7 *134:A2 *133:C 8.25098e-05
8 *134:A2 *143:A 9.90431e-05
9 *134:A2 *144:A 1.02504e-05
10 *134:A2 *20:10 0.000150625
11 *13:14 *133:B 0.000129515
12 *13:14 *15:8 9.90431e-05
13 *134:A1 *134:A2 5.71472e-05
*RES
1 *137:X *13:10 19.0321 
2 *13:10 *13:14 6.67857 
3 *13:14 *134:A2 22.7107 
4 *13:14 *133:D 9.3 
5 *13:10 *132:B 14.5321 
*END

*D_NET *14 0.00567502
*CONN
*I *135:B I *D sky130_fd_sc_hd__xor2_1
*I *136:B I *D sky130_fd_sc_hd__and3_1
*I *133:C I *D sky130_fd_sc_hd__and4_1
*I *138:X O *D sky130_fd_sc_hd__buf_1
*CAP
1 *135:B 0
2 *136:B 0
3 *133:C 0.000232558
4 *138:X 0.000410637
5 *14:18 0.00152738
6 *14:12 0.00170546
7 *133:C *133:A 9.60875e-05
8 *133:C *143:A 0
9 *133:C *16:19 5.52302e-05
10 *14:12 *142:A 0
11 *14:12 *16:6 0.000481941
12 *14:18 *16:6 5.71472e-05
13 *14:18 *16:8 0.000788283
14 *14:18 *16:19 8.76257e-05
15 P[1] *14:12 6.76337e-05
16 *134:A2 *133:C 8.25098e-05
17 *136:C *133:C 7.03393e-05
18 *138:A *14:12 1.21955e-05
*RES
1 *138:X *14:12 27.425 
2 *14:12 *14:18 19.4643 
3 *14:18 *133:C 21.925 
4 *14:18 *136:B 9.3 
5 *14:12 *135:B 9.3 
*END

*D_NET *15 0.000871306
*CONN
*I *133:B I *D sky130_fd_sc_hd__and4_1
*I *132:A I *D sky130_fd_sc_hd__nand2_1
*I *139:X O *D sky130_fd_sc_hd__clkbuf_1
*CAP
1 *133:B 6.53612e-05
2 *132:A 1.91209e-05
3 *139:X 0.000158429
4 *15:8 0.000242912
5 *136:C *133:B 0.000125057
6 *136:C *15:8 3.18676e-05
7 *13:14 *133:B 0.000129515
8 *13:14 *15:8 9.90431e-05
*RES
1 *139:X *15:8 12.3179 
2 *15:8 *132:A 9.72857 
3 *15:8 *133:B 11.4786 
*END

*D_NET *16 0.00407879
*CONN
*I *135:A I *D sky130_fd_sc_hd__xor2_1
*I *131:A I *D sky130_fd_sc_hd__inv_2
*I *133:A I *D sky130_fd_sc_hd__and4_1
*I *136:A I *D sky130_fd_sc_hd__and3_1
*I *140:X O *D sky130_fd_sc_hd__dlymetal6s2s_1
*CAP
1 *135:A 0
2 *131:A 0.000105116
3 *133:A 2.46065e-05
4 *136:A 2.23854e-05
5 *140:X 0.000185031
6 *16:19 0.000200416
7 *16:8 0.000825934
8 *16:6 0.000917886
9 *131:A *143:A 0.000148903
10 *133:C *133:A 9.60875e-05
11 *133:C *16:19 5.52302e-05
12 *136:C *133:A 7.08238e-05
13 *136:C *136:A 0
14 *136:C *16:19 1.13708e-05
15 *14:12 *16:6 0.000481941
16 *14:18 *16:6 5.71472e-05
17 *14:18 *16:8 0.000788283
18 *14:18 *16:19 8.76257e-05
*RES
1 *140:X *16:6 14.3536 
2 *16:6 *16:8 17.375 
3 *16:8 *136:A 9.72857 
4 *16:8 *16:19 2.08929 
5 *16:19 *133:A 10.2464 
6 *16:19 *131:A 20.55 
7 *16:6 *135:A 9.3 
*END

*D_NET *17 0.000912966
*CONN
*I *141:A I *D sky130_fd_sc_hd__buf_2
*I *134:X O *D sky130_fd_sc_hd__a21o_1
*CAP
1 *141:A 0.00040544
2 *134:X 0.00040544
3 *141:A *143:A 9.24825e-05
4 *141:A *144:A 0
5 P[3] *141:A 9.60337e-06
*RES
1 *134:X *141:A 34.1536 
*END

*D_NET *18 0.000642012
*CONN
*I *142:A I *D sky130_fd_sc_hd__buf_2
*I *135:X O *D sky130_fd_sc_hd__xor2_1
*CAP
1 *142:A 0.000321006
2 *135:X 0.000321006
3 *14:12 *142:A 0
*RES
1 *135:X *142:A 32.9571 
*END

*D_NET *19 0.00136609
*CONN
*I *143:A I *D sky130_fd_sc_hd__buf_2
*I *136:X O *D sky130_fd_sc_hd__and3_1
*CAP
1 *143:A 0.000477666
2 *136:X 0.000477666
3 *131:A *143:A 0.000148903
4 *133:C *143:A 0
5 *134:A1 *143:A 7.03295e-05
6 *134:A2 *143:A 9.90431e-05
7 *141:A *143:A 9.24825e-05
*RES
1 *136:X *143:A 36.6536 
*END

*D_NET *20 0.00106735
*CONN
*I *144:A I *D sky130_fd_sc_hd__buf_2
*I *134:B1 I *D sky130_fd_sc_hd__a21o_1
*I *133:X O *D sky130_fd_sc_hd__and4_1
*CAP
1 *144:A 0.000316796
2 *134:B1 0
3 *133:X 0.000120506
4 *20:10 0.000437302
5 *134:A2 *144:A 1.02504e-05
6 *134:A2 *20:10 0.000150625
7 *136:C *20:10 3.18676e-05
8 *141:A *144:A 0
*RES
1 *133:X *20:10 16.2821 
2 *20:10 *134:B1 13.8 
3 *20:10 *144:A 19.05 
*END
