*SPEF "ieee 1481-1999"
*DESIGN "SARSA_VENTAJA_e4"
*DATE "11:21:59 Wednesday September 17, 2025"
*VENDOR "The OpenROAD Project"
*PROGRAM "OpenROAD"
*VERSION "edf00dff99f6c40d67a30c0e22a8191c5d2ed9d6"
*DESIGN_FLOW "NAME_SCOPE LOCAL" "PIN_CAP NONE"
*DIVIDER /
*DELIMITER :
*BUS_DELIMITER []
*T_UNIT 1 NS
*C_UNIT 1 PF
*R_UNIT 1 OHM
*L_UNIT 1 HENRY

*NAME_MAP
*1 A[0]
*2 A[1]
*3 B[0]
*4 B[1]
*5 P[0]
*6 P[1]
*7 P[2]
*8 P[3]
*11 _0_
*12 _1_
*13 _2_
*14 net1
*15 net2
*16 net3
*17 net4
*18 net5
*19 net6
*20 net7
*21 net8
*22 FILLER_0_15
*23 FILLER_0_27
*24 FILLER_0_29
*25 FILLER_0_3
*26 FILLER_0_41
*27 FILLER_0_49
*28 FILLER_0_55
*29 FILLER_0_57
*30 FILLER_0_69
*31 FILLER_1_15
*32 FILLER_1_27
*33 FILLER_1_3
*34 FILLER_1_39
*35 FILLER_1_51
*36 FILLER_1_55
*37 FILLER_1_57
*38 FILLER_1_69
*39 FILLER_2_15
*40 FILLER_2_27
*41 FILLER_2_29
*42 FILLER_2_3
*43 FILLER_2_41
*44 FILLER_2_53
*45 FILLER_2_65
*46 FILLER_2_77
*47 FILLER_3_15
*48 FILLER_3_27
*49 FILLER_3_3
*50 FILLER_3_39
*51 FILLER_3_51
*52 FILLER_3_55
*53 FILLER_3_57
*54 FILLER_3_69
*55 FILLER_4_15
*56 FILLER_4_27
*57 FILLER_4_29
*58 FILLER_4_3
*59 FILLER_4_41
*60 FILLER_4_53
*61 FILLER_4_65
*62 FILLER_4_77
*63 FILLER_5_15
*64 FILLER_5_27
*65 FILLER_5_3
*66 FILLER_5_39
*67 FILLER_5_46
*68 FILLER_5_54
*69 FILLER_5_57
*70 FILLER_5_69
*71 FILLER_6_19
*72 FILLER_6_27
*73 FILLER_6_29
*74 FILLER_6_41
*75 FILLER_6_53
*76 FILLER_6_65
*77 FILLER_6_7
*78 FILLER_6_77
*79 FILLER_7_25
*80 FILLER_7_37
*81 FILLER_7_65
*82 FILLER_7_7
*83 FILLER_7_74
*84 FILLER_8_15
*85 FILLER_8_27
*86 FILLER_8_29
*87 FILLER_8_3
*88 FILLER_8_41
*89 FILLER_8_57
*90 FILLER_8_69
*91 FILLER_9_15
*92 FILLER_9_27
*93 FILLER_9_29
*94 FILLER_9_3
*95 FILLER_9_41
*96 FILLER_9_48
*97 FILLER_9_55
*98 FILLER_9_57
*99 FILLER_9_62
*100 FILLER_9_74
*101 FILLER_9_80
*102 PHY_EDGE_ROW_0_Left_10
*103 PHY_EDGE_ROW_0_Right_0
*104 PHY_EDGE_ROW_1_Left_11
*105 PHY_EDGE_ROW_1_Right_1
*106 PHY_EDGE_ROW_2_Left_12
*107 PHY_EDGE_ROW_2_Right_2
*108 PHY_EDGE_ROW_3_Left_13
*109 PHY_EDGE_ROW_3_Right_3
*110 PHY_EDGE_ROW_4_Left_14
*111 PHY_EDGE_ROW_4_Right_4
*112 PHY_EDGE_ROW_5_Left_15
*113 PHY_EDGE_ROW_5_Right_5
*114 PHY_EDGE_ROW_6_Left_16
*115 PHY_EDGE_ROW_6_Right_6
*116 PHY_EDGE_ROW_7_Left_17
*117 PHY_EDGE_ROW_7_Right_7
*118 PHY_EDGE_ROW_8_Left_18
*119 PHY_EDGE_ROW_8_Right_8
*120 PHY_EDGE_ROW_9_Left_19
*121 PHY_EDGE_ROW_9_Right_9
*122 TAP_TAPCELL_ROW_0_20
*123 TAP_TAPCELL_ROW_0_21
*124 TAP_TAPCELL_ROW_1_22
*125 TAP_TAPCELL_ROW_2_23
*126 TAP_TAPCELL_ROW_3_24
*127 TAP_TAPCELL_ROW_4_25
*128 TAP_TAPCELL_ROW_5_26
*129 TAP_TAPCELL_ROW_6_27
*130 TAP_TAPCELL_ROW_7_28
*131 TAP_TAPCELL_ROW_8_29
*132 TAP_TAPCELL_ROW_9_30
*133 TAP_TAPCELL_ROW_9_31
*134 _3_
*135 _4_
*136 _5_
*137 _6_
*138 _7_
*139 _8_
*140 _9_
*141 input1
*142 input2
*143 input3
*144 input4
*145 output5
*146 output6
*147 output7
*148 output8

*PORTS
A[0] I
A[1] I
B[0] I
B[1] I
P[0] O
P[1] O
P[2] O
P[3] O

*D_NET *1 0.000874227
*CONN
*P A[0] I
*I *141:A I *D sky130_fd_sc_hd__buf_1
*CAP
1 A[0] 0.000437114
2 *141:A 0.000437114
3 *141:A *142:A 0
*RES
1 A[0] *141:A 11.37 
*END

*D_NET *2 0.000876658
*CONN
*P A[1] I
*I *142:A I *D sky130_fd_sc_hd__buf_1
*CAP
1 A[1] 0.000438329
2 *142:A 0.000438329
3 *142:A *144:A 0
4 *141:A *142:A 0
*RES
1 A[1] *142:A 11.37 
*END

*D_NET *3 0.000481803
*CONN
*P B[0] I
*I *143:A I *D sky130_fd_sc_hd__buf_1
*CAP
1 B[0] 0.00020238
2 *143:A 0.00020238
3 *143:A P[2] 7.70436e-05
*RES
1 B[0] *143:A 5.35677 
*END

*D_NET *4 0.000879089
*CONN
*P B[1] I
*I *144:A I *D sky130_fd_sc_hd__buf_1
*CAP
1 B[1] 0.000439544
2 *144:A 0.000439544
3 *142:A *144:A 0
*RES
1 B[1] *144:A 11.37 
*END

*D_NET *5 0.000658473
*CONN
*P P[0] O
*I *145:X O *D sky130_fd_sc_hd__buf_2
*CAP
1 P[0] 0.000313532
2 *145:X 0.000313532
3 P[0] P[3] 3.14094e-05
*RES
1 *145:X P[0] 7.1793 
*END

*D_NET *6 0.000868071
*CONN
*P P[1] O
*I *146:X O *D sky130_fd_sc_hd__buf_2
*CAP
1 P[1] 0.000434035
2 *146:X 0.000434035
*RES
1 *146:X P[1] 10.74 
*END

*D_NET *7 0.000476614
*CONN
*P P[2] O
*I *147:X O *D sky130_fd_sc_hd__buf_2
*CAP
1 P[2] 0.000199785
2 *147:X 0.000199785
3 P[2] *16:12 0
4 *143:A P[2] 7.70436e-05
*RES
1 *147:X P[2] 4.90503 
*END

*D_NET *8 0.000468145
*CONN
*P P[3] O
*I *148:X O *D sky130_fd_sc_hd__buf_2
*CAP
1 P[3] 0.000218368
2 *148:X 0.000218368
3 P[0] P[3] 3.14094e-05
*RES
1 *148:X P[3] 4.90503 
*END

*D_NET *11 0.00115215
*CONN
*I *137:B I *D sky130_fd_sc_hd__and2b_1
*I *136:X O *D sky130_fd_sc_hd__or4b_1
*CAP
1 *137:B 0.000576073
2 *136:X 0.000576073
*RES
1 *136:X *137:B 15.72 
*END

*D_NET *12 0.00180752
*CONN
*I *139:A2 I *D sky130_fd_sc_hd__a21o_1
*I *138:X O *D sky130_fd_sc_hd__o21ba_1
*CAP
1 *139:A2 0.000903759
2 *138:X 0.000903759
*RES
1 *138:X *139:A2 17.31 
*END

*D_NET *13 0.00027965
*CONN
*I *140:C I *D sky130_fd_sc_hd__and3_1
*I *134:Y O *D sky130_fd_sc_hd__nand2_1
*CAP
1 *140:C 2.19148e-05
2 *134:Y 2.19148e-05
3 *140:C *134:B 6.80864e-05
4 *140:C *147:A 1.61831e-05
5 *140:C *16:21 0.000151551
*RES
1 *134:Y *140:C 4.565 
*END

*D_NET *14 0.00241114
*CONN
*I *138:A2 I *D sky130_fd_sc_hd__o21ba_1
*I *134:B I *D sky130_fd_sc_hd__nand2_1
*I *136:C I *D sky130_fd_sc_hd__or4b_1
*I *135:D I *D sky130_fd_sc_hd__and4_1
*I *141:X O *D sky130_fd_sc_hd__buf_1
*CAP
1 *138:A2 0.000197868
2 *134:B 9.43231e-05
3 *136:C 0
4 *135:D 0.00012507
5 *141:X 8.4526e-05
6 *14:12 0.000388553
7 *14:8 0.000451553
8 *134:B *136:D_N 0.00012657
9 *134:B *140:A 9.49789e-05
10 *134:B *140:B 0.000161204
11 *134:B *147:A 4.99619e-05
12 *134:B *16:21 2.23023e-05
13 *135:D *139:A1 2.30292e-05
14 *135:D *140:A 7.49327e-05
15 *135:D *140:B 4.60584e-05
16 *135:D *15:20 4.99619e-05
17 *135:D *15:27 0.000227261
18 *135:D *17:31 0.0001249
19 *14:8 *17:23 0
20 *14:12 *17:23 0
21 *14:12 *17:31 0
22 *140:C *134:B 6.80864e-05
*RES
1 *141:X *14:8 4.98 
2 *14:8 *14:12 4.4 
3 *14:12 *135:D 5.515 
4 *14:12 *136:C 1.6 
5 *14:12 *134:B 5.515 
6 *14:8 *138:A2 6.48 
*END

*D_NET *15 0.00215172
*CONN
*I *138:B1_N I *D sky130_fd_sc_hd__o21ba_1
*I *140:A I *D sky130_fd_sc_hd__and3_1
*I *136:A I *D sky130_fd_sc_hd__or4b_1
*I *135:B I *D sky130_fd_sc_hd__and4_1
*I *142:X O *D sky130_fd_sc_hd__buf_1
*CAP
1 *138:B1_N 0
2 *140:A 6.65031e-05
3 *136:A 0
4 *135:B 0
5 *142:X 0.000153914
6 *15:27 0.000104835
7 *15:20 0.000172052
8 *15:10 0.000287634
9 *140:A *136:D_N 8.8266e-05
10 *140:A *16:25 0.000222463
11 *15:10 *135:C 0.000141592
12 *15:10 *17:6 4.66108e-05
13 *15:10 *17:23 7.57202e-05
14 *15:20 *135:C 0.000120186
15 *15:20 *139:A1 4.82919e-05
16 *15:20 *17:31 0
17 *15:27 *139:A1 8.8266e-05
18 *15:27 *16:25 8.82557e-05
19 *134:B *140:A 9.49789e-05
20 *135:D *140:A 7.49327e-05
21 *135:D *15:20 4.99619e-05
22 *135:D *15:27 0.000227261
*RES
1 *142:X *15:10 6.375 
2 *15:10 *15:20 4.895 
3 *15:20 *135:B 1.6 
4 *15:20 *15:27 2.175 
5 *15:27 *136:A 1.6 
6 *15:27 *140:A 4.585 
7 *15:10 *138:B1_N 3.6 
*END

*D_NET *16 0.00426902
*CONN
*I *136:D_N I *D sky130_fd_sc_hd__or4b_1
*I *135:A I *D sky130_fd_sc_hd__and4_1
*I *139:A1 I *D sky130_fd_sc_hd__a21o_1
*I *134:A I *D sky130_fd_sc_hd__nand2_1
*I *143:X O *D sky130_fd_sc_hd__buf_1
*CAP
1 *136:D_N 5.11849e-05
2 *135:A 0
3 *139:A1 0.000610871
4 *134:A 0
5 *143:X 0.000284703
6 *16:25 0.00093875
7 *16:21 0.000553356
8 *16:12 0.000458996
9 *139:A1 *139:B1 0.000391671
10 *139:A1 *21:6 0.000110159
11 *16:21 *147:A 1.03323e-05
12 P[2] *16:12 0
13 *134:B *136:D_N 0.00012657
14 *134:B *16:21 2.23023e-05
15 *135:D *139:A1 2.30292e-05
16 *140:A *136:D_N 8.8266e-05
17 *140:A *16:25 0.000222463
18 *140:C *16:21 0.000151551
19 *15:20 *139:A1 4.82919e-05
20 *15:27 *139:A1 8.8266e-05
21 *15:27 *16:25 8.82557e-05
*RES
1 *143:X *16:12 9.065 
2 *16:12 *134:A 1.6 
3 *16:12 *16:21 2.79 
4 *16:21 *16:25 4.605 
5 *16:25 *139:A1 12.745 
6 *16:25 *135:A 1.6 
7 *16:21 *136:D_N 3.355 
*END

*D_NET *17 0.00242054
*CONN
*I *138:A1 I *D sky130_fd_sc_hd__o21ba_1
*I *140:B I *D sky130_fd_sc_hd__and3_1
*I *136:B I *D sky130_fd_sc_hd__or4b_1
*I *135:C I *D sky130_fd_sc_hd__and4_1
*I *144:X O *D sky130_fd_sc_hd__buf_1
*CAP
1 *138:A1 0
2 *140:B 0.000227876
3 *136:B 0
4 *135:C 0.000113479
5 *144:X 0.000122596
6 *17:31 0.00044685
7 *17:23 0.000388181
8 *17:6 0.000405281
9 *134:B *140:B 0.000161204
10 *135:D *140:B 4.60584e-05
11 *135:D *17:31 0.0001249
12 *14:8 *17:23 0
13 *14:12 *17:23 0
14 *14:12 *17:31 0
15 *15:10 *135:C 0.000141592
16 *15:10 *17:6 4.66108e-05
17 *15:10 *17:23 7.57202e-05
18 *15:20 *135:C 0.000120186
19 *15:20 *17:31 0
*RES
1 *144:X *17:6 3.43 
2 *17:6 *135:C 8.765 
3 *17:6 *17:23 5.375 
4 *17:23 *17:31 5.9 
5 *17:31 *136:B 1.6 
6 *17:31 *140:B 4.81 
7 *17:23 *138:A1 3.6 
*END

*D_NET *18 0.000609002
*CONN
*I *145:A I *D sky130_fd_sc_hd__buf_2
*I *139:X O *D sky130_fd_sc_hd__a21o_1
*CAP
1 *145:A 0.000304501
2 *139:X 0.000304501
*RES
1 *139:X *145:A 7.79 
*END

*D_NET *19 0.00120987
*CONN
*I *146:A I *D sky130_fd_sc_hd__buf_2
*I *137:X O *D sky130_fd_sc_hd__and2b_1
*CAP
1 *146:A 0.000604936
2 *137:X 0.000604936
*RES
1 *137:X *146:A 16.995 
*END

*D_NET *20 0.000479419
*CONN
*I *147:A I *D sky130_fd_sc_hd__buf_2
*I *140:X O *D sky130_fd_sc_hd__and3_1
*CAP
1 *147:A 0.000201471
2 *140:X 0.000201471
3 *134:B *147:A 4.99619e-05
4 *140:C *147:A 1.61831e-05
5 *16:21 *147:A 1.03323e-05
*RES
1 *140:X *147:A 6.335 
*END

*D_NET *21 0.00377382
*CONN
*I *139:B1 I *D sky130_fd_sc_hd__a21o_1
*I *148:A I *D sky130_fd_sc_hd__buf_2
*I *137:A_N I *D sky130_fd_sc_hd__and2b_1
*I *135:X O *D sky130_fd_sc_hd__and4_1
*CAP
1 *139:B1 0.000379741
2 *148:A 0.000790704
3 *137:A_N 0.000105726
4 *135:X 0.000246386
5 *21:10 0.00100987
6 *21:6 0.000739566
7 *139:A1 *139:B1 0.000391671
8 *139:A1 *21:6 0.000110159
*RES
1 *135:X *21:6 4.81 
2 *21:6 *21:10 3.635 
3 *21:10 *137:A_N 5.235 
4 *21:10 *148:A 15.435 
5 *21:6 *139:B1 9.235 
*END
