*SPEF "ieee 1481-1999"
*DESIGN "mult8_2bits_2op_e24963"
*DATE "12:38:49 Wednesday September 17, 2025"
*VENDOR "The OpenROAD Project"
*PROGRAM "OpenROAD"
*VERSION "edf00dff99f6c40d67a30c0e22a8191c5d2ed9d6"
*DESIGN_FLOW "NAME_SCOPE LOCAL" "PIN_CAP NONE"
*DIVIDER /
*DELIMITER :
*BUS_DELIMITER []
*T_UNIT 1 NS
*C_UNIT 1 PF
*R_UNIT 1 OHM
*L_UNIT 1 HENRY

*NAME_MAP
*1 A[0]
*2 A[1]
*3 A[2]
*4 A[3]
*5 A[4]
*6 A[5]
*7 A[6]
*8 A[7]
*9 B[0]
*10 B[1]
*11 B[2]
*12 B[3]
*13 B[4]
*14 B[5]
*15 B[6]
*16 B[7]
*17 P[0]
*18 P[10]
*19 P[11]
*20 P[12]
*21 P[13]
*22 P[14]
*23 P[15]
*24 P[1]
*25 P[2]
*26 P[3]
*27 P[4]
*28 P[5]
*29 P[6]
*30 P[7]
*31 P[8]
*32 P[9]
*35 _000_
*36 _001_
*37 _002_
*38 _003_
*39 _004_
*40 _005_
*41 _006_
*42 _007_
*43 _008_
*44 _009_
*45 _010_
*46 _011_
*47 _012_
*48 _013_
*49 _014_
*50 _015_
*51 _016_
*52 _017_
*53 _018_
*54 _019_
*55 _020_
*56 _021_
*57 _022_
*58 _023_
*59 _024_
*60 _025_
*61 _026_
*62 _027_
*63 _028_
*64 _029_
*65 _030_
*66 _031_
*67 _032_
*68 _033_
*69 _034_
*70 _035_
*71 _036_
*72 _037_
*73 _038_
*74 _039_
*75 _040_
*76 _041_
*77 _042_
*78 _043_
*79 _044_
*80 _045_
*81 _046_
*82 _047_
*83 _048_
*84 _049_
*85 _050_
*86 _051_
*87 _052_
*88 _053_
*89 _054_
*90 _055_
*91 _056_
*92 _057_
*93 _058_
*94 _059_
*95 _060_
*96 _061_
*97 _062_
*98 _063_
*99 _064_
*100 _065_
*101 _066_
*102 _067_
*103 _068_
*104 _069_
*105 _070_
*106 _071_
*107 _072_
*108 _073_
*109 _074_
*110 _075_
*111 _076_
*112 _077_
*113 _078_
*114 _079_
*115 _080_
*116 _081_
*117 _082_
*118 _083_
*119 _084_
*120 _085_
*121 _086_
*122 _087_
*123 _088_
*124 _089_
*125 _090_
*126 _091_
*127 _092_
*128 _093_
*129 _094_
*130 _095_
*131 _096_
*132 _097_
*133 _098_
*134 _099_
*135 _100_
*136 _101_
*137 _102_
*138 _103_
*139 _104_
*140 _105_
*141 _106_
*142 _107_
*143 _108_
*144 _109_
*145 _110_
*146 _111_
*147 _112_
*148 _113_
*149 _114_
*150 _115_
*151 _116_
*152 _117_
*153 _118_
*154 _119_
*155 _120_
*156 _121_
*157 _122_
*158 _123_
*159 _124_
*160 _125_
*161 _126_
*162 _127_
*163 _128_
*164 _129_
*165 _130_
*166 _131_
*167 _132_
*168 _133_
*169 _134_
*170 _135_
*171 _136_
*172 _137_
*173 _138_
*174 _139_
*175 _140_
*176 _141_
*177 _142_
*178 _143_
*179 _144_
*180 _145_
*181 _146_
*182 _147_
*183 _148_
*184 _149_
*185 _150_
*186 _151_
*187 _152_
*188 _153_
*189 _154_
*190 _155_
*191 _156_
*192 _157_
*193 _158_
*194 _159_
*195 _160_
*196 _161_
*197 _162_
*198 _163_
*199 _164_
*200 _165_
*201 _166_
*202 _167_
*203 _168_
*204 _169_
*205 _170_
*206 _171_
*207 _172_
*208 _173_
*209 _174_
*210 _175_
*211 _176_
*212 _177_
*213 _178_
*214 _179_
*215 _180_
*216 _181_
*217 _182_
*218 _183_
*219 _184_
*220 _185_
*221 _186_
*222 _187_
*223 _188_
*224 _189_
*225 _190_
*226 _191_
*227 _192_
*228 _193_
*229 _194_
*230 _195_
*231 _196_
*232 _197_
*233 _198_
*234 _199_
*235 _200_
*236 _201_
*237 _202_
*238 _203_
*239 _204_
*240 _205_
*241 _206_
*242 _207_
*243 _208_
*244 _209_
*245 _210_
*246 _211_
*247 _212_
*248 _213_
*249 _214_
*250 _215_
*251 _216_
*252 _217_
*253 _218_
*254 _219_
*255 _220_
*256 _221_
*257 _222_
*258 _223_
*259 _224_
*260 _225_
*261 _226_
*262 _227_
*263 _228_
*264 _229_
*265 _230_
*266 _231_
*267 _232_
*268 _233_
*269 _234_
*270 _235_
*271 _236_
*272 _237_
*273 _238_
*274 _239_
*275 _240_
*276 _241_
*277 _242_
*278 _243_
*279 _244_
*280 _245_
*281 _246_
*282 _247_
*283 _248_
*284 _249_
*285 _250_
*286 _251_
*287 _252_
*288 _253_
*289 _254_
*290 _255_
*291 _256_
*292 _257_
*293 _258_
*294 _259_
*295 _260_
*296 _261_
*297 _262_
*298 net1
*299 net10
*300 net11
*301 net12
*302 net13
*303 net14
*304 net15
*305 net16
*306 net17
*307 net18
*308 net19
*309 net2
*310 net20
*311 net21
*312 net22
*313 net23
*314 net24
*315 net25
*316 net26
*317 net27
*318 net28
*319 net29
*320 net3
*321 net30
*322 net31
*323 net32
*324 net33
*325 net34
*326 net35
*327 net36
*328 net37
*329 net38
*330 net39
*331 net4
*332 net40
*333 net41
*334 net42
*335 net43
*336 net44
*337 net45
*338 net46
*339 net47
*340 net48
*341 net49
*342 net5
*343 net50
*344 net51
*345 net52
*346 net53
*347 net54
*348 net55
*349 net56
*350 net57
*351 net58
*352 net59
*353 net6
*354 net60
*355 net61
*356 net62
*357 net7
*358 net8
*359 net82
*360 net83
*361 net84
*362 net85
*363 net86
*364 net87
*365 net88
*366 net89
*367 net9
*368 net90
*369 net91
*370 net92
*371 net93
*372 net94
*373 net95
*374 net96
*375 net97
*376 net98
*377 FILLER_0_111
*378 FILLER_0_113
*379 FILLER_0_125
*380 FILLER_0_133
*381 FILLER_0_141
*382 FILLER_0_15
*383 FILLER_0_156
*384 FILLER_0_169
*385 FILLER_0_181
*386 FILLER_0_193
*387 FILLER_0_197
*388 FILLER_0_209
*389 FILLER_0_217
*390 FILLER_0_225
*391 FILLER_0_237
*392 FILLER_0_249
*393 FILLER_0_253
*394 FILLER_0_259
*395 FILLER_0_27
*396 FILLER_0_271
*397 FILLER_0_279
*398 FILLER_0_281
*399 FILLER_0_29
*400 FILLER_0_293
*401 FILLER_0_3
*402 FILLER_0_306
*403 FILLER_0_309
*404 FILLER_0_321
*405 FILLER_0_333
*406 FILLER_0_337
*407 FILLER_0_349
*408 FILLER_0_361
*409 FILLER_0_365
*410 FILLER_0_377
*411 FILLER_0_389
*412 FILLER_0_393
*413 FILLER_0_405
*414 FILLER_0_41
*415 FILLER_0_53
*416 FILLER_0_57
*417 FILLER_0_69
*418 FILLER_0_81
*419 FILLER_0_85
*420 FILLER_0_93
*421 FILLER_0_97
*422 FILLER_10_109
*423 FILLER_10_121
*424 FILLER_10_133
*425 FILLER_10_139
*426 FILLER_10_141
*427 FILLER_10_15
*428 FILLER_10_153
*429 FILLER_10_165
*430 FILLER_10_177
*431 FILLER_10_189
*432 FILLER_10_195
*433 FILLER_10_197
*434 FILLER_10_209
*435 FILLER_10_220
*436 FILLER_10_232
*437 FILLER_10_238
*438 FILLER_10_258
*439 FILLER_10_27
*440 FILLER_10_270
*441 FILLER_10_282
*442 FILLER_10_29
*443 FILLER_10_294
*444 FILLER_10_3
*445 FILLER_10_306
*446 FILLER_10_309
*447 FILLER_10_321
*448 FILLER_10_333
*449 FILLER_10_345
*450 FILLER_10_357
*451 FILLER_10_363
*452 FILLER_10_365
*453 FILLER_10_377
*454 FILLER_10_389
*455 FILLER_10_401
*456 FILLER_10_41
*457 FILLER_10_53
*458 FILLER_10_65
*459 FILLER_10_77
*460 FILLER_10_83
*461 FILLER_10_85
*462 FILLER_10_97
*463 FILLER_11_105
*464 FILLER_11_111
*465 FILLER_11_113
*466 FILLER_11_125
*467 FILLER_11_137
*468 FILLER_11_149
*469 FILLER_11_15
*470 FILLER_11_161
*471 FILLER_11_167
*472 FILLER_11_169
*473 FILLER_11_181
*474 FILLER_11_193
*475 FILLER_11_205
*476 FILLER_11_217
*477 FILLER_11_223
*478 FILLER_11_225
*479 FILLER_11_240
*480 FILLER_11_253
*481 FILLER_11_265
*482 FILLER_11_27
*483 FILLER_11_277
*484 FILLER_11_281
*485 FILLER_11_293
*486 FILLER_11_3
*487 FILLER_11_305
*488 FILLER_11_317
*489 FILLER_11_329
*490 FILLER_11_335
*491 FILLER_11_337
*492 FILLER_11_349
*493 FILLER_11_361
*494 FILLER_11_373
*495 FILLER_11_385
*496 FILLER_11_39
*497 FILLER_11_391
*498 FILLER_11_393
*499 FILLER_11_405
*500 FILLER_11_51
*501 FILLER_11_55
*502 FILLER_11_57
*503 FILLER_11_69
*504 FILLER_11_81
*505 FILLER_11_93
*506 FILLER_12_109
*507 FILLER_12_121
*508 FILLER_12_133
*509 FILLER_12_139
*510 FILLER_12_141
*511 FILLER_12_15
*512 FILLER_12_153
*513 FILLER_12_165
*514 FILLER_12_177
*515 FILLER_12_186
*516 FILLER_12_194
*517 FILLER_12_197
*518 FILLER_12_201
*519 FILLER_12_205
*520 FILLER_12_219
*521 FILLER_12_231
*522 FILLER_12_247
*523 FILLER_12_251
*524 FILLER_12_253
*525 FILLER_12_265
*526 FILLER_12_27
*527 FILLER_12_277
*528 FILLER_12_289
*529 FILLER_12_29
*530 FILLER_12_3
*531 FILLER_12_301
*532 FILLER_12_307
*533 FILLER_12_309
*534 FILLER_12_321
*535 FILLER_12_333
*536 FILLER_12_345
*537 FILLER_12_357
*538 FILLER_12_363
*539 FILLER_12_365
*540 FILLER_12_377
*541 FILLER_12_389
*542 FILLER_12_401
*543 FILLER_12_41
*544 FILLER_12_53
*545 FILLER_12_65
*546 FILLER_12_77
*547 FILLER_12_83
*548 FILLER_12_85
*549 FILLER_12_97
*550 FILLER_13_105
*551 FILLER_13_111
*552 FILLER_13_113
*553 FILLER_13_119
*554 FILLER_13_125
*555 FILLER_13_136
*556 FILLER_13_148
*557 FILLER_13_15
*558 FILLER_13_160
*559 FILLER_13_176
*560 FILLER_13_192
*561 FILLER_13_200
*562 FILLER_13_209
*563 FILLER_13_221
*564 FILLER_13_225
*565 FILLER_13_233
*566 FILLER_13_241
*567 FILLER_13_253
*568 FILLER_13_265
*569 FILLER_13_27
*570 FILLER_13_277
*571 FILLER_13_281
*572 FILLER_13_293
*573 FILLER_13_3
*574 FILLER_13_305
*575 FILLER_13_317
*576 FILLER_13_329
*577 FILLER_13_335
*578 FILLER_13_337
*579 FILLER_13_349
*580 FILLER_13_361
*581 FILLER_13_373
*582 FILLER_13_385
*583 FILLER_13_39
*584 FILLER_13_391
*585 FILLER_13_393
*586 FILLER_13_405
*587 FILLER_13_51
*588 FILLER_13_55
*589 FILLER_13_57
*590 FILLER_13_69
*591 FILLER_13_81
*592 FILLER_13_93
*593 FILLER_14_109
*594 FILLER_14_118
*595 FILLER_14_131
*596 FILLER_14_139
*597 FILLER_14_141
*598 FILLER_14_15
*599 FILLER_14_153
*600 FILLER_14_165
*601 FILLER_14_195
*602 FILLER_14_197
*603 FILLER_14_209
*604 FILLER_14_221
*605 FILLER_14_233
*606 FILLER_14_245
*607 FILLER_14_251
*608 FILLER_14_253
*609 FILLER_14_265
*610 FILLER_14_27
*611 FILLER_14_277
*612 FILLER_14_289
*613 FILLER_14_29
*614 FILLER_14_3
*615 FILLER_14_301
*616 FILLER_14_307
*617 FILLER_14_309
*618 FILLER_14_321
*619 FILLER_14_333
*620 FILLER_14_345
*621 FILLER_14_357
*622 FILLER_14_363
*623 FILLER_14_365
*624 FILLER_14_377
*625 FILLER_14_389
*626 FILLER_14_401
*627 FILLER_14_41
*628 FILLER_14_53
*629 FILLER_14_65
*630 FILLER_14_77
*631 FILLER_14_83
*632 FILLER_14_85
*633 FILLER_14_97
*634 FILLER_15_105
*635 FILLER_15_111
*636 FILLER_15_113
*637 FILLER_15_125
*638 FILLER_15_144
*639 FILLER_15_15
*640 FILLER_15_156
*641 FILLER_15_169
*642 FILLER_15_177
*643 FILLER_15_194
*644 FILLER_15_206
*645 FILLER_15_218
*646 FILLER_15_225
*647 FILLER_15_237
*648 FILLER_15_249
*649 FILLER_15_261
*650 FILLER_15_27
*651 FILLER_15_273
*652 FILLER_15_279
*653 FILLER_15_281
*654 FILLER_15_293
*655 FILLER_15_3
*656 FILLER_15_305
*657 FILLER_15_317
*658 FILLER_15_329
*659 FILLER_15_335
*660 FILLER_15_337
*661 FILLER_15_349
*662 FILLER_15_361
*663 FILLER_15_373
*664 FILLER_15_385
*665 FILLER_15_39
*666 FILLER_15_391
*667 FILLER_15_393
*668 FILLER_15_405
*669 FILLER_15_51
*670 FILLER_15_55
*671 FILLER_15_57
*672 FILLER_15_69
*673 FILLER_15_81
*674 FILLER_15_93
*675 FILLER_16_100
*676 FILLER_16_112
*677 FILLER_16_124
*678 FILLER_16_136
*679 FILLER_16_141
*680 FILLER_16_15
*681 FILLER_16_153
*682 FILLER_16_165
*683 FILLER_16_177
*684 FILLER_16_189
*685 FILLER_16_195
*686 FILLER_16_197
*687 FILLER_16_210
*688 FILLER_16_222
*689 FILLER_16_234
*690 FILLER_16_246
*691 FILLER_16_253
*692 FILLER_16_265
*693 FILLER_16_269
*694 FILLER_16_27
*695 FILLER_16_283
*696 FILLER_16_29
*697 FILLER_16_295
*698 FILLER_16_3
*699 FILLER_16_307
*700 FILLER_16_309
*701 FILLER_16_321
*702 FILLER_16_333
*703 FILLER_16_345
*704 FILLER_16_357
*705 FILLER_16_363
*706 FILLER_16_365
*707 FILLER_16_377
*708 FILLER_16_389
*709 FILLER_16_401
*710 FILLER_16_41
*711 FILLER_16_53
*712 FILLER_16_65
*713 FILLER_16_77
*714 FILLER_16_83
*715 FILLER_16_85
*716 FILLER_17_105
*717 FILLER_17_111
*718 FILLER_17_113
*719 FILLER_17_121
*720 FILLER_17_135
*721 FILLER_17_15
*722 FILLER_17_150
*723 FILLER_17_162
*724 FILLER_17_169
*725 FILLER_17_177
*726 FILLER_17_191
*727 FILLER_17_203
*728 FILLER_17_215
*729 FILLER_17_223
*730 FILLER_17_225
*731 FILLER_17_229
*732 FILLER_17_243
*733 FILLER_17_255
*734 FILLER_17_267
*735 FILLER_17_27
*736 FILLER_17_279
*737 FILLER_17_281
*738 FILLER_17_293
*739 FILLER_17_3
*740 FILLER_17_305
*741 FILLER_17_317
*742 FILLER_17_329
*743 FILLER_17_335
*744 FILLER_17_337
*745 FILLER_17_349
*746 FILLER_17_361
*747 FILLER_17_373
*748 FILLER_17_385
*749 FILLER_17_39
*750 FILLER_17_391
*751 FILLER_17_393
*752 FILLER_17_405
*753 FILLER_17_51
*754 FILLER_17_55
*755 FILLER_17_57
*756 FILLER_17_69
*757 FILLER_17_77
*758 FILLER_17_93
*759 FILLER_18_109
*760 FILLER_18_121
*761 FILLER_18_133
*762 FILLER_18_139
*763 FILLER_18_141
*764 FILLER_18_15
*765 FILLER_18_153
*766 FILLER_18_165
*767 FILLER_18_177
*768 FILLER_18_189
*769 FILLER_18_195
*770 FILLER_18_197
*771 FILLER_18_209
*772 FILLER_18_221
*773 FILLER_18_225
*774 FILLER_18_245
*775 FILLER_18_251
*776 FILLER_18_253
*777 FILLER_18_261
*778 FILLER_18_27
*779 FILLER_18_275
*780 FILLER_18_287
*781 FILLER_18_29
*782 FILLER_18_299
*783 FILLER_18_3
*784 FILLER_18_307
*785 FILLER_18_309
*786 FILLER_18_321
*787 FILLER_18_333
*788 FILLER_18_345
*789 FILLER_18_357
*790 FILLER_18_363
*791 FILLER_18_365
*792 FILLER_18_377
*793 FILLER_18_389
*794 FILLER_18_401
*795 FILLER_18_41
*796 FILLER_18_53
*797 FILLER_18_65
*798 FILLER_18_77
*799 FILLER_18_83
*800 FILLER_18_97
*801 FILLER_19_105
*802 FILLER_19_111
*803 FILLER_19_113
*804 FILLER_19_125
*805 FILLER_19_137
*806 FILLER_19_15
*807 FILLER_19_165
*808 FILLER_19_169
*809 FILLER_19_181
*810 FILLER_19_193
*811 FILLER_19_205
*812 FILLER_19_212
*813 FILLER_19_218
*814 FILLER_19_225
*815 FILLER_19_244
*816 FILLER_19_256
*817 FILLER_19_27
*818 FILLER_19_279
*819 FILLER_19_281
*820 FILLER_19_293
*821 FILLER_19_3
*822 FILLER_19_305
*823 FILLER_19_317
*824 FILLER_19_329
*825 FILLER_19_335
*826 FILLER_19_337
*827 FILLER_19_349
*828 FILLER_19_361
*829 FILLER_19_373
*830 FILLER_19_385
*831 FILLER_19_39
*832 FILLER_19_391
*833 FILLER_19_393
*834 FILLER_19_405
*835 FILLER_19_51
*836 FILLER_19_55
*837 FILLER_19_57
*838 FILLER_19_69
*839 FILLER_19_81
*840 FILLER_19_93
*841 FILLER_1_105
*842 FILLER_1_111
*843 FILLER_1_113
*844 FILLER_1_125
*845 FILLER_1_137
*846 FILLER_1_149
*847 FILLER_1_15
*848 FILLER_1_161
*849 FILLER_1_167
*850 FILLER_1_169
*851 FILLER_1_181
*852 FILLER_1_193
*853 FILLER_1_205
*854 FILLER_1_217
*855 FILLER_1_223
*856 FILLER_1_225
*857 FILLER_1_237
*858 FILLER_1_249
*859 FILLER_1_261
*860 FILLER_1_27
*861 FILLER_1_273
*862 FILLER_1_279
*863 FILLER_1_281
*864 FILLER_1_293
*865 FILLER_1_3
*866 FILLER_1_305
*867 FILLER_1_317
*868 FILLER_1_329
*869 FILLER_1_335
*870 FILLER_1_337
*871 FILLER_1_349
*872 FILLER_1_361
*873 FILLER_1_373
*874 FILLER_1_385
*875 FILLER_1_39
*876 FILLER_1_391
*877 FILLER_1_393
*878 FILLER_1_405
*879 FILLER_1_51
*880 FILLER_1_55
*881 FILLER_1_57
*882 FILLER_1_69
*883 FILLER_1_81
*884 FILLER_1_93
*885 FILLER_20_109
*886 FILLER_20_128
*887 FILLER_20_141
*888 FILLER_20_145
*889 FILLER_20_15
*890 FILLER_20_156
*891 FILLER_20_168
*892 FILLER_20_180
*893 FILLER_20_192
*894 FILLER_20_197
*895 FILLER_20_209
*896 FILLER_20_221
*897 FILLER_20_229
*898 FILLER_20_240
*899 FILLER_20_253
*900 FILLER_20_261
*901 FILLER_20_27
*902 FILLER_20_270
*903 FILLER_20_282
*904 FILLER_20_29
*905 FILLER_20_294
*906 FILLER_20_3
*907 FILLER_20_306
*908 FILLER_20_309
*909 FILLER_20_321
*910 FILLER_20_333
*911 FILLER_20_345
*912 FILLER_20_357
*913 FILLER_20_363
*914 FILLER_20_365
*915 FILLER_20_377
*916 FILLER_20_389
*917 FILLER_20_401
*918 FILLER_20_41
*919 FILLER_20_53
*920 FILLER_20_65
*921 FILLER_20_77
*922 FILLER_20_83
*923 FILLER_20_85
*924 FILLER_20_97
*925 FILLER_21_105
*926 FILLER_21_111
*927 FILLER_21_113
*928 FILLER_21_120
*929 FILLER_21_132
*930 FILLER_21_144
*931 FILLER_21_15
*932 FILLER_21_151
*933 FILLER_21_163
*934 FILLER_21_167
*935 FILLER_21_169
*936 FILLER_21_181
*937 FILLER_21_190
*938 FILLER_21_202
*939 FILLER_21_208
*940 FILLER_21_220
*941 FILLER_21_225
*942 FILLER_21_237
*943 FILLER_21_249
*944 FILLER_21_261
*945 FILLER_21_27
*946 FILLER_21_273
*947 FILLER_21_279
*948 FILLER_21_281
*949 FILLER_21_293
*950 FILLER_21_3
*951 FILLER_21_305
*952 FILLER_21_317
*953 FILLER_21_329
*954 FILLER_21_335
*955 FILLER_21_337
*956 FILLER_21_349
*957 FILLER_21_361
*958 FILLER_21_373
*959 FILLER_21_385
*960 FILLER_21_39
*961 FILLER_21_391
*962 FILLER_21_393
*963 FILLER_21_405
*964 FILLER_21_55
*965 FILLER_21_57
*966 FILLER_21_69
*967 FILLER_21_81
*968 FILLER_21_93
*969 FILLER_22_117
*970 FILLER_22_129
*971 FILLER_22_137
*972 FILLER_22_141
*973 FILLER_22_15
*974 FILLER_22_153
*975 FILLER_22_165
*976 FILLER_22_173
*977 FILLER_22_195
*978 FILLER_22_197
*979 FILLER_22_209
*980 FILLER_22_221
*981 FILLER_22_233
*982 FILLER_22_245
*983 FILLER_22_251
*984 FILLER_22_253
*985 FILLER_22_265
*986 FILLER_22_27
*987 FILLER_22_277
*988 FILLER_22_289
*989 FILLER_22_29
*990 FILLER_22_3
*991 FILLER_22_301
*992 FILLER_22_307
*993 FILLER_22_309
*994 FILLER_22_321
*995 FILLER_22_333
*996 FILLER_22_345
*997 FILLER_22_357
*998 FILLER_22_363
*999 FILLER_22_365
*1000 FILLER_22_377
*1001 FILLER_22_389
*1002 FILLER_22_41
*1003 FILLER_22_62
*1004 FILLER_22_74
*1005 FILLER_22_82
*1006 FILLER_22_85
*1007 FILLER_22_93
*1008 FILLER_23_103
*1009 FILLER_23_126
*1010 FILLER_23_138
*1011 FILLER_23_15
*1012 FILLER_23_157
*1013 FILLER_23_165
*1014 FILLER_23_169
*1015 FILLER_23_181
*1016 FILLER_23_186
*1017 FILLER_23_202
*1018 FILLER_23_210
*1019 FILLER_23_222
*1020 FILLER_23_225
*1021 FILLER_23_233
*1022 FILLER_23_241
*1023 FILLER_23_253
*1024 FILLER_23_265
*1025 FILLER_23_27
*1026 FILLER_23_277
*1027 FILLER_23_281
*1028 FILLER_23_293
*1029 FILLER_23_3
*1030 FILLER_23_305
*1031 FILLER_23_317
*1032 FILLER_23_329
*1033 FILLER_23_335
*1034 FILLER_23_337
*1035 FILLER_23_349
*1036 FILLER_23_361
*1037 FILLER_23_373
*1038 FILLER_23_385
*1039 FILLER_23_39
*1040 FILLER_23_391
*1041 FILLER_23_393
*1042 FILLER_23_405
*1043 FILLER_23_47
*1044 FILLER_23_79
*1045 FILLER_23_91
*1046 FILLER_24_131
*1047 FILLER_24_139
*1048 FILLER_24_141
*1049 FILLER_24_160
*1050 FILLER_24_172
*1051 FILLER_24_184
*1052 FILLER_24_190
*1053 FILLER_24_197
*1054 FILLER_24_209
*1055 FILLER_24_221
*1056 FILLER_24_233
*1057 FILLER_24_245
*1058 FILLER_24_251
*1059 FILLER_24_266
*1060 FILLER_24_278
*1061 FILLER_24_289
*1062 FILLER_24_301
*1063 FILLER_24_307
*1064 FILLER_24_309
*1065 FILLER_24_32
*1066 FILLER_24_321
*1067 FILLER_24_333
*1068 FILLER_24_345
*1069 FILLER_24_357
*1070 FILLER_24_363
*1071 FILLER_24_365
*1072 FILLER_24_377
*1073 FILLER_24_389
*1074 FILLER_24_40
*1075 FILLER_24_401
*1076 FILLER_24_7
*1077 FILLER_24_77
*1078 FILLER_24_83
*1079 FILLER_24_85
*1080 FILLER_24_93
*1081 FILLER_25_13
*1082 FILLER_25_133
*1083 FILLER_25_145
*1084 FILLER_25_151
*1085 FILLER_25_169
*1086 FILLER_25_181
*1087 FILLER_25_193
*1088 FILLER_25_205
*1089 FILLER_25_217
*1090 FILLER_25_223
*1091 FILLER_25_225
*1092 FILLER_25_237
*1093 FILLER_25_249
*1094 FILLER_25_257
*1095 FILLER_25_270
*1096 FILLER_25_278
*1097 FILLER_25_289
*1098 FILLER_25_30
*1099 FILLER_25_301
*1100 FILLER_25_313
*1101 FILLER_25_325
*1102 FILLER_25_333
*1103 FILLER_25_337
*1104 FILLER_25_349
*1105 FILLER_25_361
*1106 FILLER_25_373
*1107 FILLER_25_385
*1108 FILLER_25_391
*1109 FILLER_25_393
*1110 FILLER_25_42
*1111 FILLER_25_57
*1112 FILLER_25_61
*1113 FILLER_25_69
*1114 FILLER_25_7
*1115 FILLER_25_81
*1116 FILLER_25_93
*1117 FILLER_26_125
*1118 FILLER_26_137
*1119 FILLER_26_141
*1120 FILLER_26_15
*1121 FILLER_26_153
*1122 FILLER_26_165
*1123 FILLER_26_177
*1124 FILLER_26_189
*1125 FILLER_26_195
*1126 FILLER_26_197
*1127 FILLER_26_209
*1128 FILLER_26_213
*1129 FILLER_26_22
*1130 FILLER_26_225
*1131 FILLER_26_237
*1132 FILLER_26_249
*1133 FILLER_26_253
*1134 FILLER_26_265
*1135 FILLER_26_278
*1136 FILLER_26_286
*1137 FILLER_26_29
*1138 FILLER_26_294
*1139 FILLER_26_306
*1140 FILLER_26_309
*1141 FILLER_26_321
*1142 FILLER_26_333
*1143 FILLER_26_345
*1144 FILLER_26_357
*1145 FILLER_26_363
*1146 FILLER_26_365
*1147 FILLER_26_377
*1148 FILLER_26_389
*1149 FILLER_26_401
*1150 FILLER_26_41
*1151 FILLER_26_53
*1152 FILLER_26_57
*1153 FILLER_26_68
*1154 FILLER_26_7
*1155 FILLER_26_80
*1156 FILLER_26_85
*1157 FILLER_26_93
*1158 FILLER_27_109
*1159 FILLER_27_118
*1160 FILLER_27_130
*1161 FILLER_27_142
*1162 FILLER_27_15
*1163 FILLER_27_154
*1164 FILLER_27_167
*1165 FILLER_27_176
*1166 FILLER_27_188
*1167 FILLER_27_200
*1168 FILLER_27_212
*1169 FILLER_27_225
*1170 FILLER_27_237
*1171 FILLER_27_249
*1172 FILLER_27_261
*1173 FILLER_27_27
*1174 FILLER_27_273
*1175 FILLER_27_278
*1176 FILLER_27_298
*1177 FILLER_27_3
*1178 FILLER_27_310
*1179 FILLER_27_322
*1180 FILLER_27_334
*1181 FILLER_27_337
*1182 FILLER_27_349
*1183 FILLER_27_361
*1184 FILLER_27_373
*1185 FILLER_27_385
*1186 FILLER_27_39
*1187 FILLER_27_391
*1188 FILLER_27_393
*1189 FILLER_27_405
*1190 FILLER_27_51
*1191 FILLER_27_55
*1192 FILLER_27_67
*1193 FILLER_27_79
*1194 FILLER_27_91
*1195 FILLER_27_99
*1196 FILLER_28_105
*1197 FILLER_28_111
*1198 FILLER_28_123
*1199 FILLER_28_135
*1200 FILLER_28_139
*1201 FILLER_28_141
*1202 FILLER_28_15
*1203 FILLER_28_153
*1204 FILLER_28_157
*1205 FILLER_28_177
*1206 FILLER_28_189
*1207 FILLER_28_195
*1208 FILLER_28_197
*1209 FILLER_28_209
*1210 FILLER_28_213
*1211 FILLER_28_221
*1212 FILLER_28_232
*1213 FILLER_28_244
*1214 FILLER_28_253
*1215 FILLER_28_265
*1216 FILLER_28_27
*1217 FILLER_28_282
*1218 FILLER_28_29
*1219 FILLER_28_294
*1220 FILLER_28_3
*1221 FILLER_28_306
*1222 FILLER_28_309
*1223 FILLER_28_321
*1224 FILLER_28_333
*1225 FILLER_28_345
*1226 FILLER_28_357
*1227 FILLER_28_363
*1228 FILLER_28_365
*1229 FILLER_28_377
*1230 FILLER_28_389
*1231 FILLER_28_401
*1232 FILLER_28_41
*1233 FILLER_28_53
*1234 FILLER_28_69
*1235 FILLER_28_81
*1236 FILLER_28_85
*1237 FILLER_28_97
*1238 FILLER_29_105
*1239 FILLER_29_111
*1240 FILLER_29_113
*1241 FILLER_29_125
*1242 FILLER_29_137
*1243 FILLER_29_149
*1244 FILLER_29_15
*1245 FILLER_29_167
*1246 FILLER_29_181
*1247 FILLER_29_193
*1248 FILLER_29_216
*1249 FILLER_29_225
*1250 FILLER_29_237
*1251 FILLER_29_249
*1252 FILLER_29_261
*1253 FILLER_29_27
*1254 FILLER_29_273
*1255 FILLER_29_279
*1256 FILLER_29_281
*1257 FILLER_29_293
*1258 FILLER_29_3
*1259 FILLER_29_305
*1260 FILLER_29_317
*1261 FILLER_29_329
*1262 FILLER_29_335
*1263 FILLER_29_337
*1264 FILLER_29_349
*1265 FILLER_29_361
*1266 FILLER_29_373
*1267 FILLER_29_385
*1268 FILLER_29_39
*1269 FILLER_29_391
*1270 FILLER_29_393
*1271 FILLER_29_405
*1272 FILLER_29_51
*1273 FILLER_29_55
*1274 FILLER_29_57
*1275 FILLER_29_69
*1276 FILLER_29_81
*1277 FILLER_29_93
*1278 FILLER_2_109
*1279 FILLER_2_121
*1280 FILLER_2_133
*1281 FILLER_2_139
*1282 FILLER_2_141
*1283 FILLER_2_15
*1284 FILLER_2_153
*1285 FILLER_2_165
*1286 FILLER_2_177
*1287 FILLER_2_189
*1288 FILLER_2_195
*1289 FILLER_2_197
*1290 FILLER_2_209
*1291 FILLER_2_221
*1292 FILLER_2_233
*1293 FILLER_2_245
*1294 FILLER_2_251
*1295 FILLER_2_253
*1296 FILLER_2_265
*1297 FILLER_2_27
*1298 FILLER_2_277
*1299 FILLER_2_289
*1300 FILLER_2_29
*1301 FILLER_2_3
*1302 FILLER_2_301
*1303 FILLER_2_307
*1304 FILLER_2_309
*1305 FILLER_2_321
*1306 FILLER_2_333
*1307 FILLER_2_345
*1308 FILLER_2_357
*1309 FILLER_2_363
*1310 FILLER_2_365
*1311 FILLER_2_377
*1312 FILLER_2_389
*1313 FILLER_2_401
*1314 FILLER_2_41
*1315 FILLER_2_53
*1316 FILLER_2_65
*1317 FILLER_2_77
*1318 FILLER_2_83
*1319 FILLER_2_85
*1320 FILLER_2_97
*1321 FILLER_30_109
*1322 FILLER_30_121
*1323 FILLER_30_133
*1324 FILLER_30_139
*1325 FILLER_30_141
*1326 FILLER_30_15
*1327 FILLER_30_153
*1328 FILLER_30_157
*1329 FILLER_30_178
*1330 FILLER_30_190
*1331 FILLER_30_197
*1332 FILLER_30_209
*1333 FILLER_30_221
*1334 FILLER_30_233
*1335 FILLER_30_238
*1336 FILLER_30_250
*1337 FILLER_30_253
*1338 FILLER_30_265
*1339 FILLER_30_27
*1340 FILLER_30_277
*1341 FILLER_30_289
*1342 FILLER_30_29
*1343 FILLER_30_3
*1344 FILLER_30_301
*1345 FILLER_30_307
*1346 FILLER_30_309
*1347 FILLER_30_321
*1348 FILLER_30_333
*1349 FILLER_30_345
*1350 FILLER_30_357
*1351 FILLER_30_363
*1352 FILLER_30_365
*1353 FILLER_30_377
*1354 FILLER_30_389
*1355 FILLER_30_401
*1356 FILLER_30_41
*1357 FILLER_30_53
*1358 FILLER_30_65
*1359 FILLER_30_77
*1360 FILLER_30_83
*1361 FILLER_30_85
*1362 FILLER_30_97
*1363 FILLER_31_110
*1364 FILLER_31_113
*1365 FILLER_31_120
*1366 FILLER_31_132
*1367 FILLER_31_144
*1368 FILLER_31_15
*1369 FILLER_31_156
*1370 FILLER_31_160
*1371 FILLER_31_178
*1372 FILLER_31_190
*1373 FILLER_31_202
*1374 FILLER_31_214
*1375 FILLER_31_222
*1376 FILLER_31_225
*1377 FILLER_31_237
*1378 FILLER_31_249
*1379 FILLER_31_264
*1380 FILLER_31_27
*1381 FILLER_31_276
*1382 FILLER_31_281
*1383 FILLER_31_293
*1384 FILLER_31_3
*1385 FILLER_31_305
*1386 FILLER_31_317
*1387 FILLER_31_329
*1388 FILLER_31_335
*1389 FILLER_31_337
*1390 FILLER_31_349
*1391 FILLER_31_361
*1392 FILLER_31_373
*1393 FILLER_31_385
*1394 FILLER_31_39
*1395 FILLER_31_391
*1396 FILLER_31_393
*1397 FILLER_31_405
*1398 FILLER_31_51
*1399 FILLER_31_57
*1400 FILLER_31_71
*1401 FILLER_31_83
*1402 FILLER_31_89
*1403 FILLER_31_99
*1404 FILLER_32_101
*1405 FILLER_32_107
*1406 FILLER_32_114
*1407 FILLER_32_120
*1408 FILLER_32_134
*1409 FILLER_32_141
*1410 FILLER_32_15
*1411 FILLER_32_153
*1412 FILLER_32_171
*1413 FILLER_32_183
*1414 FILLER_32_195
*1415 FILLER_32_197
*1416 FILLER_32_209
*1417 FILLER_32_221
*1418 FILLER_32_233
*1419 FILLER_32_245
*1420 FILLER_32_268
*1421 FILLER_32_27
*1422 FILLER_32_280
*1423 FILLER_32_29
*1424 FILLER_32_292
*1425 FILLER_32_3
*1426 FILLER_32_304
*1427 FILLER_32_309
*1428 FILLER_32_321
*1429 FILLER_32_333
*1430 FILLER_32_345
*1431 FILLER_32_357
*1432 FILLER_32_363
*1433 FILLER_32_365
*1434 FILLER_32_377
*1435 FILLER_32_389
*1436 FILLER_32_401
*1437 FILLER_32_41
*1438 FILLER_32_80
*1439 FILLER_32_85
*1440 FILLER_32_97
*1441 FILLER_33_109
*1442 FILLER_33_113
*1443 FILLER_33_125
*1444 FILLER_33_137
*1445 FILLER_33_149
*1446 FILLER_33_15
*1447 FILLER_33_161
*1448 FILLER_33_167
*1449 FILLER_33_169
*1450 FILLER_33_181
*1451 FILLER_33_193
*1452 FILLER_33_205
*1453 FILLER_33_217
*1454 FILLER_33_223
*1455 FILLER_33_225
*1456 FILLER_33_237
*1457 FILLER_33_249
*1458 FILLER_33_261
*1459 FILLER_33_27
*1460 FILLER_33_273
*1461 FILLER_33_279
*1462 FILLER_33_281
*1463 FILLER_33_293
*1464 FILLER_33_3
*1465 FILLER_33_305
*1466 FILLER_33_317
*1467 FILLER_33_329
*1468 FILLER_33_335
*1469 FILLER_33_337
*1470 FILLER_33_349
*1471 FILLER_33_361
*1472 FILLER_33_373
*1473 FILLER_33_385
*1474 FILLER_33_39
*1475 FILLER_33_391
*1476 FILLER_33_393
*1477 FILLER_33_405
*1478 FILLER_33_51
*1479 FILLER_33_55
*1480 FILLER_33_61
*1481 FILLER_33_73
*1482 FILLER_33_85
*1483 FILLER_33_97
*1484 FILLER_34_109
*1485 FILLER_34_118
*1486 FILLER_34_122
*1487 FILLER_34_128
*1488 FILLER_34_141
*1489 FILLER_34_15
*1490 FILLER_34_153
*1491 FILLER_34_165
*1492 FILLER_34_174
*1493 FILLER_34_186
*1494 FILLER_34_194
*1495 FILLER_34_204
*1496 FILLER_34_212
*1497 FILLER_34_225
*1498 FILLER_34_237
*1499 FILLER_34_249
*1500 FILLER_34_253
*1501 FILLER_34_265
*1502 FILLER_34_27
*1503 FILLER_34_277
*1504 FILLER_34_289
*1505 FILLER_34_29
*1506 FILLER_34_3
*1507 FILLER_34_301
*1508 FILLER_34_307
*1509 FILLER_34_309
*1510 FILLER_34_321
*1511 FILLER_34_333
*1512 FILLER_34_345
*1513 FILLER_34_357
*1514 FILLER_34_363
*1515 FILLER_34_365
*1516 FILLER_34_377
*1517 FILLER_34_389
*1518 FILLER_34_401
*1519 FILLER_34_41
*1520 FILLER_34_49
*1521 FILLER_34_56
*1522 FILLER_34_66
*1523 FILLER_34_78
*1524 FILLER_34_85
*1525 FILLER_34_97
*1526 FILLER_35_102
*1527 FILLER_35_110
*1528 FILLER_35_117
*1529 FILLER_35_129
*1530 FILLER_35_137
*1531 FILLER_35_143
*1532 FILLER_35_155
*1533 FILLER_35_163
*1534 FILLER_35_176
*1535 FILLER_35_18
*1536 FILLER_35_184
*1537 FILLER_35_190
*1538 FILLER_35_202
*1539 FILLER_35_214
*1540 FILLER_35_222
*1541 FILLER_35_225
*1542 FILLER_35_231
*1543 FILLER_35_235
*1544 FILLER_35_243
*1545 FILLER_35_255
*1546 FILLER_35_267
*1547 FILLER_35_279
*1548 FILLER_35_281
*1549 FILLER_35_293
*1550 FILLER_35_30
*1551 FILLER_35_305
*1552 FILLER_35_317
*1553 FILLER_35_329
*1554 FILLER_35_335
*1555 FILLER_35_337
*1556 FILLER_35_349
*1557 FILLER_35_361
*1558 FILLER_35_373
*1559 FILLER_35_385
*1560 FILLER_35_391
*1561 FILLER_35_393
*1562 FILLER_35_405
*1563 FILLER_35_42
*1564 FILLER_35_54
*1565 FILLER_35_57
*1566 FILLER_35_6
*1567 FILLER_35_66
*1568 FILLER_35_78
*1569 FILLER_35_90
*1570 FILLER_36_104
*1571 FILLER_36_110
*1572 FILLER_36_122
*1573 FILLER_36_138
*1574 FILLER_36_141
*1575 FILLER_36_153
*1576 FILLER_36_165
*1577 FILLER_36_175
*1578 FILLER_36_187
*1579 FILLER_36_19
*1580 FILLER_36_195
*1581 FILLER_36_197
*1582 FILLER_36_209
*1583 FILLER_36_226
*1584 FILLER_36_238
*1585 FILLER_36_250
*1586 FILLER_36_253
*1587 FILLER_36_265
*1588 FILLER_36_27
*1589 FILLER_36_277
*1590 FILLER_36_289
*1591 FILLER_36_29
*1592 FILLER_36_301
*1593 FILLER_36_307
*1594 FILLER_36_309
*1595 FILLER_36_321
*1596 FILLER_36_333
*1597 FILLER_36_345
*1598 FILLER_36_357
*1599 FILLER_36_363
*1600 FILLER_36_365
*1601 FILLER_36_377
*1602 FILLER_36_389
*1603 FILLER_36_401
*1604 FILLER_36_41
*1605 FILLER_36_53
*1606 FILLER_36_65
*1607 FILLER_36_7
*1608 FILLER_36_77
*1609 FILLER_36_83
*1610 FILLER_36_85
*1611 FILLER_36_97
*1612 FILLER_37_111
*1613 FILLER_37_113
*1614 FILLER_37_125
*1615 FILLER_37_137
*1616 FILLER_37_149
*1617 FILLER_37_15
*1618 FILLER_37_161
*1619 FILLER_37_167
*1620 FILLER_37_169
*1621 FILLER_37_181
*1622 FILLER_37_193
*1623 FILLER_37_205
*1624 FILLER_37_217
*1625 FILLER_37_225
*1626 FILLER_37_237
*1627 FILLER_37_249
*1628 FILLER_37_253
*1629 FILLER_37_261
*1630 FILLER_37_27
*1631 FILLER_37_270
*1632 FILLER_37_278
*1633 FILLER_37_281
*1634 FILLER_37_293
*1635 FILLER_37_3
*1636 FILLER_37_305
*1637 FILLER_37_317
*1638 FILLER_37_329
*1639 FILLER_37_335
*1640 FILLER_37_337
*1641 FILLER_37_349
*1642 FILLER_37_361
*1643 FILLER_37_373
*1644 FILLER_37_385
*1645 FILLER_37_39
*1646 FILLER_37_391
*1647 FILLER_37_393
*1648 FILLER_37_405
*1649 FILLER_37_51
*1650 FILLER_37_55
*1651 FILLER_37_75
*1652 FILLER_37_87
*1653 FILLER_37_95
*1654 FILLER_38_109
*1655 FILLER_38_121
*1656 FILLER_38_133
*1657 FILLER_38_139
*1658 FILLER_38_141
*1659 FILLER_38_15
*1660 FILLER_38_153
*1661 FILLER_38_165
*1662 FILLER_38_177
*1663 FILLER_38_189
*1664 FILLER_38_195
*1665 FILLER_38_197
*1666 FILLER_38_209
*1667 FILLER_38_221
*1668 FILLER_38_233
*1669 FILLER_38_245
*1670 FILLER_38_251
*1671 FILLER_38_253
*1672 FILLER_38_265
*1673 FILLER_38_27
*1674 FILLER_38_277
*1675 FILLER_38_289
*1676 FILLER_38_29
*1677 FILLER_38_3
*1678 FILLER_38_301
*1679 FILLER_38_307
*1680 FILLER_38_309
*1681 FILLER_38_321
*1682 FILLER_38_333
*1683 FILLER_38_345
*1684 FILLER_38_357
*1685 FILLER_38_363
*1686 FILLER_38_365
*1687 FILLER_38_377
*1688 FILLER_38_389
*1689 FILLER_38_401
*1690 FILLER_38_41
*1691 FILLER_38_47
*1692 FILLER_38_71
*1693 FILLER_38_79
*1694 FILLER_38_83
*1695 FILLER_38_85
*1696 FILLER_38_97
*1697 FILLER_39_100
*1698 FILLER_39_113
*1699 FILLER_39_125
*1700 FILLER_39_137
*1701 FILLER_39_143
*1702 FILLER_39_15
*1703 FILLER_39_151
*1704 FILLER_39_163
*1705 FILLER_39_167
*1706 FILLER_39_169
*1707 FILLER_39_181
*1708 FILLER_39_196
*1709 FILLER_39_205
*1710 FILLER_39_217
*1711 FILLER_39_223
*1712 FILLER_39_225
*1713 FILLER_39_237
*1714 FILLER_39_249