*SPEF "ieee 1481-1999"
*DESIGN "Sarsa_Ruido_e9_1"
*DATE "14:13:08 Tuesday September 16, 2025"
*VENDOR "The OpenROAD Project"
*PROGRAM "OpenROAD"
*VERSION "edf00dff99f6c40d67a30c0e22a8191c5d2ed9d6"
*DESIGN_FLOW "NAME_SCOPE LOCAL" "PIN_CAP NONE"
*DIVIDER /
*DELIMITER :
*BUS_DELIMITER []
*T_UNIT 1 NS
*C_UNIT 1 PF
*R_UNIT 1 OHM
*L_UNIT 1 HENRY

*NAME_MAP
*1 A[0]
*2 A[1]
*3 B[0]
*4 B[1]
*5 P[0]
*6 P[1]
*7 P[2]
*8 P[3]
*11 _00_
*12 _01_
*13 _02_
*14 _03_
*15 _04_
*16 net1
*17 net2
*18 net3
*19 net4
*20 net5
*21 net6
*22 net7
*23 net8
*24 FILLER_0_15
*25 FILLER_0_23
*26 FILLER_0_27
*27 FILLER_0_29
*28 FILLER_0_3
*29 FILLER_0_35
*30 FILLER_0_41
*31 FILLER_0_49
*32 FILLER_0_55
*33 FILLER_0_57
*34 FILLER_0_69
*35 FILLER_1_15
*36 FILLER_1_26
*37 FILLER_1_3
*38 FILLER_1_34
*39 FILLER_1_44
*40 FILLER_1_57
*41 FILLER_1_69
*42 FILLER_2_15
*43 FILLER_2_19
*44 FILLER_2_3
*45 FILLER_2_39
*46 FILLER_2_51
*47 FILLER_2_63
*48 FILLER_2_75
*49 FILLER_3_15
*50 FILLER_3_27
*51 FILLER_3_3
*52 FILLER_3_39
*53 FILLER_3_51
*54 FILLER_3_55
*55 FILLER_3_57
*56 FILLER_3_69
*57 FILLER_4_15
*58 FILLER_4_27
*59 FILLER_4_29
*60 FILLER_4_3
*61 FILLER_4_41
*62 FILLER_4_53
*63 FILLER_4_65
*64 FILLER_4_77
*65 FILLER_5_15
*66 FILLER_5_27
*67 FILLER_5_3
*68 FILLER_5_35
*69 FILLER_5_41
*70 FILLER_5_53
*71 FILLER_5_57
*72 FILLER_5_69
*73 FILLER_6_15
*74 FILLER_6_27
*75 FILLER_6_29
*76 FILLER_6_3
*77 FILLER_6_35
*78 FILLER_6_49
*79 FILLER_6_61
*80 FILLER_6_73
*81 FILLER_7_15
*82 FILLER_7_27
*83 FILLER_7_3
*84 FILLER_7_39
*85 FILLER_7_51
*86 FILLER_7_55
*87 FILLER_7_57
*88 FILLER_7_69
*89 FILLER_8_15
*90 FILLER_8_27
*91 FILLER_8_29
*92 FILLER_8_3
*93 FILLER_8_41
*94 FILLER_8_45
*95 FILLER_8_49
*96 FILLER_8_61
*97 FILLER_8_73
*98 FILLER_9_15
*99 FILLER_9_27
*100 FILLER_9_29
*101 FILLER_9_3
*102 FILLER_9_37
*103 FILLER_9_42
*104 FILLER_9_48
*105 FILLER_9_57
*106 FILLER_9_69
*107 PHY_EDGE_ROW_0_Left_10
*108 PHY_EDGE_ROW_0_Right_0
*109 PHY_EDGE_ROW_1_Left_11
*110 PHY_EDGE_ROW_1_Right_1
*111 PHY_EDGE_ROW_2_Left_12
*112 PHY_EDGE_ROW_2_Right_2
*113 PHY_EDGE_ROW_3_Left_13
*114 PHY_EDGE_ROW_3_Right_3
*115 PHY_EDGE_ROW_4_Left_14
*116 PHY_EDGE_ROW_4_Right_4
*117 PHY_EDGE_ROW_5_Left_15
*118 PHY_EDGE_ROW_5_Right_5
*119 PHY_EDGE_ROW_6_Left_16
*120 PHY_EDGE_ROW_6_Right_6
*121 PHY_EDGE_ROW_7_Left_17
*122 PHY_EDGE_ROW_7_Right_7
*123 PHY_EDGE_ROW_8_Left_18
*124 PHY_EDGE_ROW_8_Right_8
*125 PHY_EDGE_ROW_9_Left_19
*126 PHY_EDGE_ROW_9_Right_9
*127 TAP_TAPCELL_ROW_0_20
*128 TAP_TAPCELL_ROW_0_21
*129 TAP_TAPCELL_ROW_1_22
*130 TAP_TAPCELL_ROW_2_23
*131 TAP_TAPCELL_ROW_3_24
*132 TAP_TAPCELL_ROW_4_25
*133 TAP_TAPCELL_ROW_5_26
*134 TAP_TAPCELL_ROW_6_27
*135 TAP_TAPCELL_ROW_7_28
*136 TAP_TAPCELL_ROW_8_29
*137 TAP_TAPCELL_ROW_9_30
*138 TAP_TAPCELL_ROW_9_31
*139 _05_
*140 _06_
*141 _07_
*142 _08_
*143 _09_
*144 _10_
*145 _11_
*146 _12_
*147 _13_
*148 input1
*149 input2
*150 input3
*151 input4
*152 output5
*153 output6
*154 output7
*155 output8

*PORTS
A[0] I
A[1] I
B[0] I
B[1] I
P[0] O
P[1] O
P[2] O
P[3] O

*D_NET *1 0.000954449
*CONN
*P A[0] I
*I *148:A I *D sky130_fd_sc_hd__clkbuf_1
*CAP
1 A[0] 0.000465854
2 *148:A 0.000465854
3 *148:A P[0] 0
4 *148:A P[1] 0
5 *148:A *152:A 0
6 *148:A *16:14 2.27416e-05
*RES
1 A[0] *148:A 22.6571 
*END

*D_NET *2 0.00084331
*CONN
*P A[1] I
*I *149:A I *D sky130_fd_sc_hd__buf_1
*CAP
1 A[1] 0.000421655
2 *149:A 0.000421655
3 *149:A P[0] 0
*RES
1 A[1] *149:A 21.8357 
*END

*D_NET *3 0.000944501
*CONN
*P B[0] I
*I *150:A I *D sky130_fd_sc_hd__buf_1
*CAP
1 B[0] 0.000472251
2 *150:A 0.000472251
3 *150:A P[1] 0
*RES
1 B[0] *150:A 22.6571 
*END

*D_NET *4 0.000936309
*CONN
*P B[1] I
*I *151:A I *D sky130_fd_sc_hd__buf_1
*CAP
1 B[1] 0.000468155
2 *151:A 0.000468155
3 *151:A P[2] 0
4 *151:A P[3] 0
*RES
1 B[1] *151:A 23.05 
*END

*D_NET *5 0.000946725
*CONN
*P P[0] O
*I *152:X O *D sky130_fd_sc_hd__buf_2
*CAP
1 P[0] 0.000473363
2 *152:X 0.000473363
3 *148:A P[0] 0
4 *149:A P[0] 0
*RES
1 *152:X P[0] 22.05 
*END

*D_NET *6 0.000932591
*CONN
*P P[1] O
*I *153:X O *D sky130_fd_sc_hd__buf_2
*CAP
1 P[1] 0.000466295
2 *153:X 0.000466295
3 *148:A P[1] 0
4 *150:A P[1] 0
*RES
1 *153:X P[1] 22.3 
*END

*D_NET *7 0.000911701
*CONN
*P P[2] O
*I *154:X O *D sky130_fd_sc_hd__buf_2
*CAP
1 P[2] 0.00045585
2 *154:X 0.00045585
3 *151:A P[2] 0
*RES
1 *154:X P[2] 22.8536 
*END

*D_NET *8 0.00095307
*CONN
*P P[3] O
*I *155:X O *D sky130_fd_sc_hd__buf_2
*CAP
1 P[3] 0.000476535
2 *155:X 0.000476535
3 *151:A P[3] 0
*RES
1 *155:X P[3] 23.2643 
*END

*D_NET *11 0.00375377
*CONN
*I *145:B1 I *D sky130_fd_sc_hd__a31o_1
*I *141:B1 I *D sky130_fd_sc_hd__a21oi_1
*I *147:A I *D sky130_fd_sc_hd__nor2_1
*I *140:X O *D sky130_fd_sc_hd__and4bb_1
*CAP
1 *145:B1 0.0003857
2 *141:B1 0
3 *147:A 0.000260602
4 *140:X 0.000258764
5 *11:14 0.000439505
6 *11:8 0.000823367
7 *145:B1 *142:A_N 0.000124869
8 *145:B1 *145:A3 1.69252e-05
9 *145:B1 *19:31 0.000518517
10 *147:A *152:A 0.000101157
11 *147:A *18:22 0.000185124
12 *11:8 *17:17 0.000361446
13 *11:8 *17:24 5.49489e-05
14 *11:14 *141:A1 2.04866e-05
15 *11:14 *16:14 0.000101545
16 *11:14 *18:22 2.41665e-05
17 *11:14 *19:31 7.6644e-05
*RES
1 *140:X *11:8 17.6214 
2 *11:8 *11:14 7.89286 
3 *11:14 *147:A 14.7821 
4 *11:14 *141:B1 9.3 
5 *11:8 *145:B1 23.3893 
*END

*D_NET *12 0.00134749
*CONN
*I *143:A I *D sky130_fd_sc_hd__inv_2
*I *145:A2 I *D sky130_fd_sc_hd__a31o_1
*I *142:Y O *D sky130_fd_sc_hd__nand3b_1
*CAP
1 *143:A 0.000161774
2 *145:A2 0.000158744
3 *142:Y 8.1246e-05
4 *12:6 0.000401764
5 *143:A *19:8 0.000322453
6 *145:A2 *142:B 1.33343e-05
7 *145:A2 *145:A1 0.000139674
8 *145:A2 *154:A 5.45307e-05
9 *12:6 *142:B 1.39726e-05
*RES
1 *142:Y *12:6 10.2464 
2 *12:6 *145:A2 13.0321 
3 *12:6 *143:A 22.3714 
*END

*D_NET *13 0.000219725
*CONN
*I *145:A3 I *D sky130_fd_sc_hd__a31o_1
*I *144:Y O *D sky130_fd_sc_hd__nand2b_1
*CAP
1 *145:A3 8.17621e-05
2 *144:Y 8.17621e-05
3 *145:A3 *142:A_N 3.92757e-05
4 *145:B1 *145:A3 1.69252e-05
*RES
1 *144:Y *145:A3 29.2429 
*END

*D_NET *14 0.000363
*CONN
*I *147:B I *D sky130_fd_sc_hd__nor2_1
*I *146:X O *D sky130_fd_sc_hd__o2bb2a_1
*CAP
1 *147:B 0.000178847
2 *146:X 0.000178847
3 *147:B *152:A 5.30637e-06
4 *147:B *17:10 0
*RES
1 *146:X *147:B 30.6 
*END

*D_NET *15 0.000174744
*CONN
*I *141:A2 I *D sky130_fd_sc_hd__a21oi_1
*I *139:Y O *D sky130_fd_sc_hd__inv_2
*CAP
1 *141:A2 3.37782e-05
2 *139:Y 3.37782e-05
3 *141:A2 *141:A1 7.20217e-06
4 *141:A2 *18:22 9.99853e-05
*RES
1 *139:Y *141:A2 19.5464 
*END

*D_NET *16 0.00217053
*CONN
*I *146:A2_N I *D sky130_fd_sc_hd__o2bb2a_1
*I *140:C I *D sky130_fd_sc_hd__and4bb_1
*I *148:X O *D sky130_fd_sc_hd__clkbuf_1
*CAP
1 *146:A2_N 0.000235961
2 *140:C 0
3 *148:X 0.000453914
4 *16:14 0.000689875
5 *146:A2_N *146:A1_N 0.000202086
6 *146:A2_N *146:B1 0.000232123
7 *16:14 *141:A1 7.6644e-05
8 *16:14 *146:B1 0.000114553
9 *16:14 *152:A 0
10 *16:14 *19:31 4.10843e-05
11 *148:A *16:14 2.27416e-05
12 *11:14 *16:14 0.000101545
*RES
1 *148:X *16:14 25.3 
2 *16:14 *140:C 9.3 
3 *16:14 *146:A2_N 14.3893 
*END

*D_NET *17 0.00465117
*CONN
*I *142:C I *D sky130_fd_sc_hd__nand3b_1
*I *145:A1 I *D sky130_fd_sc_hd__a31o_1
*I *141:A1 I *D sky130_fd_sc_hd__a21oi_1
*I *140:A_N I *D sky130_fd_sc_hd__and4bb_1
*I *146:B2 I *D sky130_fd_sc_hd__o2bb2a_1
*I *149:X O *D sky130_fd_sc_hd__buf_1
*CAP
1 *142:C 0
2 *145:A1 0.000129574
3 *141:A1 0.000142858
4 *140:A_N 0
5 *146:B2 0
6 *149:X 0.000310017
7 *17:45 0.000784083
8 *17:24 0.000859912
9 *17:17 0.000172998
10 *17:10 0.000420471
11 *141:A1 *18:22 1.34631e-05
12 *141:A1 *18:54 3.12359e-05
13 *141:A1 *19:31 5.41794e-05
14 *145:A1 *142:A_N 0.000267013
15 *17:10 *152:A 0
16 *17:10 *18:22 0
17 *17:17 *146:A1_N 0.000230482
18 *17:17 *18:24 9.86146e-05
19 *17:17 *18:54 0.000185124
20 *17:24 *18:54 0.000123471
21 *17:45 *142:A_N 5.40539e-05
22 *17:45 *18:54 4.08637e-05
23 *17:45 *19:14 7.23529e-05
24 *141:A2 *141:A1 7.20217e-06
25 *145:A2 *145:A1 0.000139674
26 *147:B *17:10 0
27 *11:8 *17:17 0.000361446
28 *11:8 *17:24 5.49489e-05
29 *11:14 *141:A1 2.04866e-05
30 *16:14 *141:A1 7.6644e-05
*RES
1 *149:X *17:10 22.9786 
2 *17:10 *146:B2 9.3 
3 *17:10 *17:17 4.64286 
4 *17:17 *140:A_N 9.3 
5 *17:17 *17:24 1.35714 
6 *17:24 *141:A1 21.0857 
7 *17:24 *17:45 20.4107 
8 *17:45 *145:A1 13.1571 
9 *17:45 *142:C 9.3 
*END

*D_NET *18 0.00625269
*CONN
*I *139:A I *D sky130_fd_sc_hd__inv_2
*I *142:A_N I *D sky130_fd_sc_hd__nand3b_1
*I *144:B I *D sky130_fd_sc_hd__nand2b_1
*I *140:D I *D sky130_fd_sc_hd__and4bb_1
*I *146:A1_N I *D sky130_fd_sc_hd__o2bb2a_1
*I *150:X O *D sky130_fd_sc_hd__buf_1
*CAP
1 *139:A 0
2 *142:A_N 0.000283099
3 *144:B 0
4 *140:D 0
5 *146:A1_N 0.000115956
6 *150:X 0.000337931
7 *18:54 0.000761416
8 *18:24 0.000132526
9 *18:22 0.000862371
10 *18:12 0.000705416
11 *142:A_N *19:31 3.17148e-05
12 *146:A1_N *146:B1 0.000188586
13 *18:12 *153:A 2.93922e-05
14 *18:22 *153:A 0.000146006
15 *18:24 *146:B1 8.52803e-05
16 *18:54 *144:A_N 6.66256e-05
17 *18:54 *146:B1 0.000172687
18 *18:54 *19:14 4.08637e-05
19 *18:54 *19:31 0.000572989
20 *141:A1 *18:22 1.34631e-05
21 *141:A1 *18:54 3.12359e-05
22 *141:A2 *18:22 9.99853e-05
23 *145:A1 *142:A_N 0.000267013
24 *145:A3 *142:A_N 3.92757e-05
25 *145:B1 *142:A_N 0.000124869
26 *146:A2_N *146:A1_N 0.000202086
27 *147:A *18:22 0.000185124
28 *11:14 *18:22 2.41665e-05
29 *17:10 *18:22 0
30 *17:17 *146:A1_N 0.000230482
31 *17:17 *18:24 9.86146e-05
32 *17:17 *18:54 0.000185124
33 *17:24 *18:54 0.000123471
34 *17:45 *142:A_N 5.40539e-05
35 *17:45 *18:54 4.08637e-05
*RES
1 *150:X *18:12 24.0679 
2 *18:12 *18:22 16.5179 
3 *18:22 *18:24 0.946429 
4 *18:24 *146:A1_N 13.6884 
5 *18:24 *140:D 9.3 
6 *18:22 *18:54 21.5625 
7 *18:54 *144:B 9.3 
8 *18:54 *142:A_N 32.2643 
9 *18:12 *139:A 9.3 
*END

*D_NET *19 0.00481561
*CONN
*I *142:B I *D sky130_fd_sc_hd__nand3b_1
*I *140:B_N I *D sky130_fd_sc_hd__and4bb_1
*I *146:B1 I *D sky130_fd_sc_hd__o2bb2a_1
*I *144:A_N I *D sky130_fd_sc_hd__nand2b_1
*I *151:X O *D sky130_fd_sc_hd__buf_1
*CAP
1 *142:B 2.86301e-05
2 *140:B_N 2.22847e-05
3 *146:B1 6.94883e-05
4 *144:A_N 0.000120195
5 *151:X 0.000328047
6 *19:31 0.000299515
7 *19:14 0.000650376
8 *19:8 0.000679116
9 *19:8 *155:A 0
10 *141:A1 *19:31 5.41794e-05
11 *142:A_N *19:31 3.17148e-05
12 *143:A *19:8 0.000322453
13 *145:A2 *142:B 1.33343e-05
14 *145:B1 *19:31 0.000518517
15 *146:A1_N *146:B1 0.000188586
16 *146:A2_N *146:B1 0.000232123
17 *11:14 *19:31 7.6644e-05
18 *12:6 *142:B 1.39726e-05
19 *16:14 *146:B1 0.000114553
20 *16:14 *19:31 4.10843e-05
21 *17:45 *19:14 7.23529e-05
22 *18:24 *146:B1 8.52803e-05
23 *18:54 *144:A_N 6.66256e-05
24 *18:54 *146:B1 0.000172687
25 *18:54 *19:14 4.08637e-05
26 *18:54 *19:31 0.000572989
*RES
1 *151:X *19:8 20.6036 
2 *19:8 *19:14 9.85714 
3 *19:14 *144:A_N 11.0857 
4 *19:14 *19:31 17.9643 
5 *19:31 *146:B1 13.5321 
6 *19:31 *140:B_N 9.72857 
7 *19:8 *142:B 14.3357 
*END

*D_NET *20 0.000860789
*CONN
*I *152:A I *D sky130_fd_sc_hd__buf_2
*I *147:Y O *D sky130_fd_sc_hd__nor2_1
*CAP
1 *152:A 0.000377163
2 *147:Y 0.000377163
3 *147:A *152:A 0.000101157
4 *147:B *152:A 5.30637e-06
5 *148:A *152:A 0
6 *16:14 *152:A 0
7 *17:10 *152:A 0
*RES
1 *147:Y *152:A 32.9571 
*END

*D_NET *21 0.000918201
*CONN
*I *153:A I *D sky130_fd_sc_hd__buf_2
*I *141:Y O *D sky130_fd_sc_hd__a21oi_1
*CAP
1 *153:A 0.000371402
2 *141:Y 0.000371402
3 *18:12 *153:A 2.93922e-05
4 *18:22 *153:A 0.000146006
*RES
1 *141:Y *153:A 32.9571 
*END

*D_NET *22 0.00104353
*CONN
*I *154:A I *D sky130_fd_sc_hd__buf_2
*I *145:X O *D sky130_fd_sc_hd__a31o_1
*CAP
1 *154:A 0.000494502
2 *145:X 0.000494502
3 *145:A2 *154:A 5.45307e-05
*RES
1 *145:X *154:A 35.8857 
*END

*D_NET *23 0.000559954
*CONN
*I *155:A I *D sky130_fd_sc_hd__buf_2
*I *143:Y O *D sky130_fd_sc_hd__inv_2
*CAP
1 *155:A 0.000279977
2 *143:Y 0.000279977
3 *19:8 *155:A 0
*RES
1 *143:Y *155:A 32.3321 
*END
