*SPEF "ieee 1481-1999"
*DESIGN "mult8_2bits_1op_e173492"
*DATE "19:26:57 Tuesday September 16, 2025"
*VENDOR "The OpenROAD Project"
*PROGRAM "OpenROAD"
*VERSION "edf00dff99f6c40d67a30c0e22a8191c5d2ed9d6"
*DESIGN_FLOW "NAME_SCOPE LOCAL" "PIN_CAP NONE"
*DIVIDER /
*DELIMITER :
*BUS_DELIMITER []
*T_UNIT 1 NS
*C_UNIT 1 PF
*R_UNIT 1 OHM
*L_UNIT 1 HENRY

*NAME_MAP
*1 A[0]
*2 A[1]
*3 A[2]
*4 A[3]
*5 A[4]
*6 A[5]
*7 A[6]
*8 A[7]
*9 B[0]
*10 B[1]
*11 B[2]
*12 B[3]
*13 B[4]
*14 B[5]
*15 B[6]
*16 B[7]
*17 P[0]
*18 P[10]
*19 P[11]
*20 P[12]
*21 P[13]
*22 P[14]
*23 P[15]
*24 P[1]
*25 P[2]
*26 P[3]
*27 P[4]
*28 P[5]
*29 P[6]
*30 P[7]
*31 P[8]
*32 P[9]
*35 _000_
*36 _001_
*37 _002_
*38 _003_
*39 _004_
*40 _005_
*41 _006_
*42 _007_
*43 _008_
*44 _009_
*45 _010_
*46 _011_
*47 _012_
*48 _013_
*49 _014_
*50 _015_
*51 _016_
*52 _017_
*53 _018_
*54 _019_
*55 _020_
*56 _021_
*57 _022_
*58 _023_
*59 _024_
*60 _025_
*61 _026_
*62 _027_
*63 _028_
*64 _029_
*65 _030_
*66 _031_
*67 _032_
*68 _033_
*69 _034_
*70 _035_
*71 _036_
*72 _037_
*73 _038_
*74 _039_
*75 _040_
*76 _041_
*77 _042_
*78 _043_
*79 _044_
*80 _045_
*81 _046_
*82 _047_
*83 _048_
*84 _049_
*85 _050_
*86 _051_
*87 _052_
*88 _053_
*89 _054_
*90 _055_
*91 _056_
*92 _057_
*93 _058_
*94 _059_
*95 _060_
*96 _061_
*97 _062_
*98 _063_
*99 _064_
*100 _065_
*101 _066_
*102 _067_
*103 _068_
*104 _069_
*105 _070_
*106 _071_
*107 _072_
*108 _073_
*109 _074_
*110 _075_
*111 _076_
*112 _077_
*113 _078_
*114 _079_
*115 _080_
*116 _081_
*117 _082_
*118 _083_
*119 _084_
*120 _085_
*121 _086_
*122 _087_
*123 _088_
*124 _089_
*125 _090_
*126 _091_
*127 _092_
*128 _093_
*129 _094_
*130 _095_
*131 _096_
*132 _097_
*133 _098_
*134 _099_
*135 _100_
*136 _101_
*137 _102_
*138 _103_
*139 _104_
*140 _105_
*141 _106_
*142 _107_
*143 _108_
*144 _109_
*145 _110_
*146 _111_
*147 _112_
*148 _113_
*149 _114_
*150 _115_
*151 _116_
*152 _117_
*153 _118_
*154 _119_
*155 _120_
*156 _121_
*157 _122_
*158 _123_
*159 _124_
*160 _125_
*161 _126_
*162 _127_
*163 _128_
*164 _129_
*165 _130_
*166 _131_
*167 _132_
*168 _133_
*169 _134_
*170 _135_
*171 _136_
*172 _137_
*173 _138_
*174 _139_
*175 _140_
*176 _141_
*177 _142_
*178 _143_
*179 _144_
*180 _145_
*181 _146_
*182 _147_
*183 _148_
*184 _149_
*185 _150_
*186 _151_
*187 _152_
*188 _153_
*189 _154_
*190 _155_
*191 _156_
*192 _157_
*193 _158_
*194 _159_
*195 _160_
*196 _161_
*197 _162_
*198 _163_
*199 _164_
*200 _165_
*201 _166_
*202 _167_
*203 _168_
*204 _169_
*205 _170_
*206 _171_
*207 _172_
*208 _173_
*209 _174_
*210 _175_
*211 _176_
*212 _177_
*213 _178_
*214 _179_
*215 _180_
*216 _181_
*217 _182_
*218 _183_
*219 _184_
*220 _185_
*221 _186_
*222 _187_
*223 _188_
*224 _189_
*225 _190_
*226 _191_
*227 _192_
*228 _193_
*229 _194_
*230 _195_
*231 _196_
*232 _197_
*233 _198_
*234 _199_
*235 _200_
*236 _201_
*237 _202_
*238 _203_
*239 _204_
*240 _205_
*241 _206_
*242 _207_
*243 _208_
*244 _209_
*245 _210_
*246 _211_
*247 _212_
*248 _213_
*249 _214_
*250 _215_
*251 _216_
*252 _217_
*253 _218_
*254 _219_
*255 _220_
*256 _221_
*257 _222_
*258 _223_
*259 _224_
*260 _225_
*261 _226_
*262 _227_
*263 _228_
*264 _229_
*265 _230_
*266 _231_
*267 _232_
*268 _233_
*269 _234_
*270 _235_
*271 _236_
*272 _237_
*273 _238_
*274 _239_
*275 _240_
*276 _241_
*277 _242_
*278 _243_
*279 _244_
*280 _245_
*281 _246_
*282 _247_
*283 _248_
*284 _249_
*285 _250_
*286 _251_
*287 _252_
*288 _253_
*289 _254_
*290 _255_
*291 _256_
*292 _257_
*293 _258_
*294 _259_
*295 _260_
*296 _261_
*297 _262_
*298 _263_
*299 _264_
*300 _265_
*301 _266_
*302 _267_
*303 _268_
*304 _269_
*305 _270_
*306 _271_
*307 _272_
*308 _273_
*309 net1
*310 net10
*311 net11
*312 net12
*313 net13
*314 net14
*315 net15
*316 net16
*317 net17
*318 net18
*319 net19
*320 net2
*321 net20
*322 net21
*323 net22
*324 net23
*325 net24
*326 net25
*327 net26
*328 net27
*329 net28
*330 net29
*331 net3
*332 net30
*333 net31
*334 net32
*335 net33
*336 net34
*337 net35
*338 net36
*339 net37
*340 net38
*341 net39
*342 net4
*343 net40
*344 net41
*345 net42
*346 net43
*347 net44
*348 net45
*349 net46
*350 net47
*351 net48
*352 net49
*353 net5
*354 net50
*355 net51
*356 net52
*357 net53
*358 net54
*359 net55
*360 net56
*361 net57
*362 net58
*363 net59
*364 net6
*365 net60
*366 net61
*367 net62
*368 net63
*369 net64
*370 net65
*371 net66
*372 net67
*373 net68
*374 net69
*375 net7
*376 net70
*377 net71
*378 net72
*379 net73
*380 net74
*381 net75
*382 net76
*383 net77
*384 net78
*385 net8
*386 net81
*387 net82
*388 net83
*389 net84
*390 net85
*391 net86
*392 net87
*393 net88
*394 net9
*395 FILLER_0_109
*396 FILLER_0_113
*397 FILLER_0_125
*398 FILLER_0_137
*399 FILLER_0_141
*400 FILLER_0_15
*401 FILLER_0_153
*402 FILLER_0_165
*403 FILLER_0_169
*404 FILLER_0_175
*405 FILLER_0_182
*406 FILLER_0_189
*407 FILLER_0_197
*408 FILLER_0_209
*409 FILLER_0_221
*410 FILLER_0_225
*411 FILLER_0_233
*412 FILLER_0_238
*413 FILLER_0_250
*414 FILLER_0_253
*415 FILLER_0_265
*416 FILLER_0_27
*417 FILLER_0_273
*418 FILLER_0_279
*419 FILLER_0_281
*420 FILLER_0_29
*421 FILLER_0_293
*422 FILLER_0_3
*423 FILLER_0_305
*424 FILLER_0_309
*425 FILLER_0_321
*426 FILLER_0_333
*427 FILLER_0_337
*428 FILLER_0_349
*429 FILLER_0_361
*430 FILLER_0_365
*431 FILLER_0_377
*432 FILLER_0_389
*433 FILLER_0_393
*434 FILLER_0_405
*435 FILLER_0_41
*436 FILLER_0_53
*437 FILLER_0_57
*438 FILLER_0_69
*439 FILLER_0_81
*440 FILLER_0_85
*441 FILLER_0_97
*442 FILLER_10_109
*443 FILLER_10_121
*444 FILLER_10_133
*445 FILLER_10_139
*446 FILLER_10_141
*447 FILLER_10_15
*448 FILLER_10_153
*449 FILLER_10_165
*450 FILLER_10_177
*451 FILLER_10_189
*452 FILLER_10_195
*453 FILLER_10_197
*454 FILLER_10_209
*455 FILLER_10_221
*456 FILLER_10_233
*457 FILLER_10_245
*458 FILLER_10_251
*459 FILLER_10_253
*460 FILLER_10_265
*461 FILLER_10_27
*462 FILLER_10_277
*463 FILLER_10_289
*464 FILLER_10_29
*465 FILLER_10_3
*466 FILLER_10_301
*467 FILLER_10_307
*468 FILLER_10_309
*469 FILLER_10_321
*470 FILLER_10_333
*471 FILLER_10_345
*472 FILLER_10_357
*473 FILLER_10_363
*474 FILLER_10_365
*475 FILLER_10_377
*476 FILLER_10_389
*477 FILLER_10_401
*478 FILLER_10_41
*479 FILLER_10_53
*480 FILLER_10_65
*481 FILLER_10_77
*482 FILLER_10_83
*483 FILLER_10_85
*484 FILLER_10_97
*485 FILLER_11_105
*486 FILLER_11_111
*487 FILLER_11_113
*488 FILLER_11_125
*489 FILLER_11_137
*490 FILLER_11_149
*491 FILLER_11_15
*492 FILLER_11_161
*493 FILLER_11_167
*494 FILLER_11_169
*495 FILLER_11_181
*496 FILLER_11_193
*497 FILLER_11_205
*498 FILLER_11_217
*499 FILLER_11_223
*500 FILLER_11_225
*501 FILLER_11_237
*502 FILLER_11_249
*503 FILLER_11_261
*504 FILLER_11_27
*505 FILLER_11_273
*506 FILLER_11_279
*507 FILLER_11_281
*508 FILLER_11_293
*509 FILLER_11_3
*510 FILLER_11_305
*511 FILLER_11_317
*512 FILLER_11_329
*513 FILLER_11_335
*514 FILLER_11_337
*515 FILLER_11_349
*516 FILLER_11_361
*517 FILLER_11_373
*518 FILLER_11_385
*519 FILLER_11_39
*520 FILLER_11_391
*521 FILLER_11_393
*522 FILLER_11_405
*523 FILLER_11_51
*524 FILLER_11_55
*525 FILLER_11_57
*526 FILLER_11_69
*527 FILLER_11_81
*528 FILLER_11_93
*529 FILLER_12_109
*530 FILLER_12_121
*531 FILLER_12_133
*532 FILLER_12_139
*533 FILLER_12_141
*534 FILLER_12_15
*535 FILLER_12_153
*536 FILLER_12_165
*537 FILLER_12_177
*538 FILLER_12_189
*539 FILLER_12_195
*540 FILLER_12_197
*541 FILLER_12_209
*542 FILLER_12_221
*543 FILLER_12_233
*544 FILLER_12_245
*545 FILLER_12_251
*546 FILLER_12_253
*547 FILLER_12_265
*548 FILLER_12_27
*549 FILLER_12_277
*550 FILLER_12_289
*551 FILLER_12_29
*552 FILLER_12_3
*553 FILLER_12_301
*554 FILLER_12_307
*555 FILLER_12_309
*556 FILLER_12_321
*557 FILLER_12_333
*558 FILLER_12_345
*559 FILLER_12_357
*560 FILLER_12_363
*561 FILLER_12_365
*562 FILLER_12_377
*563 FILLER_12_389
*564 FILLER_12_401
*565 FILLER_12_41
*566 FILLER_12_53
*567 FILLER_12_65
*568 FILLER_12_77
*569 FILLER_12_83
*570 FILLER_12_85
*571 FILLER_12_97
*572 FILLER_13_105
*573 FILLER_13_111
*574 FILLER_13_113
*575 FILLER_13_125
*576 FILLER_13_137
*577 FILLER_13_149
*578 FILLER_13_15
*579 FILLER_13_161
*580 FILLER_13_167
*581 FILLER_13_182
*582 FILLER_13_194
*583 FILLER_13_206
*584 FILLER_13_210
*585 FILLER_13_225
*586 FILLER_13_237
*587 FILLER_13_249
*588 FILLER_13_261
*589 FILLER_13_27
*590 FILLER_13_273
*591 FILLER_13_279
*592 FILLER_13_281
*593 FILLER_13_293
*594 FILLER_13_3
*595 FILLER_13_305
*596 FILLER_13_317
*597 FILLER_13_329
*598 FILLER_13_335
*599 FILLER_13_337
*600 FILLER_13_349
*601 FILLER_13_361
*602 FILLER_13_373
*603 FILLER_13_385
*604 FILLER_13_39
*605 FILLER_13_391
*606 FILLER_13_393
*607 FILLER_13_405
*608 FILLER_13_51
*609 FILLER_13_55
*610 FILLER_13_57
*611 FILLER_13_69
*612 FILLER_13_81
*613 FILLER_13_93
*614 FILLER_14_109
*615 FILLER_14_121
*616 FILLER_14_133
*617 FILLER_14_139
*618 FILLER_14_141
*619 FILLER_14_15
*620 FILLER_14_154
*621 FILLER_14_166
*622 FILLER_14_175
*623 FILLER_14_187
*624 FILLER_14_195
*625 FILLER_14_197
*626 FILLER_14_205
*627 FILLER_14_230
*628 FILLER_14_242
*629 FILLER_14_250
*630 FILLER_14_253
*631 FILLER_14_265
*632 FILLER_14_27
*633 FILLER_14_277
*634 FILLER_14_289
*635 FILLER_14_29
*636 FILLER_14_3
*637 FILLER_14_301
*638 FILLER_14_307
*639 FILLER_14_309
*640 FILLER_14_321
*641 FILLER_14_333
*642 FILLER_14_345
*643 FILLER_14_357
*644 FILLER_14_363
*645 FILLER_14_365
*646 FILLER_14_377
*647 FILLER_14_389
*648 FILLER_14_401
*649 FILLER_14_41
*650 FILLER_14_53
*651 FILLER_14_65
*652 FILLER_14_77
*653 FILLER_14_83
*654 FILLER_14_85
*655 FILLER_14_97
*656 FILLER_15_105
*657 FILLER_15_111
*658 FILLER_15_113
*659 FILLER_15_135
*660 FILLER_15_147
*661 FILLER_15_15
*662 FILLER_15_159
*663 FILLER_15_167
*664 FILLER_15_169
*665 FILLER_15_181
*666 FILLER_15_193
*667 FILLER_15_205
*668 FILLER_15_209
*669 FILLER_15_223
*670 FILLER_15_225
*671 FILLER_15_237
*672 FILLER_15_249
*673 FILLER_15_261
*674 FILLER_15_27
*675 FILLER_15_273
*676 FILLER_15_279
*677 FILLER_15_281
*678 FILLER_15_293
*679 FILLER_15_3
*680 FILLER_15_305
*681 FILLER_15_317
*682 FILLER_15_329
*683 FILLER_15_335
*684 FILLER_15_337
*685 FILLER_15_349
*686 FILLER_15_361
*687 FILLER_15_373
*688 FILLER_15_385
*689 FILLER_15_39
*690 FILLER_15_391
*691 FILLER_15_393
*692 FILLER_15_405
*693 FILLER_15_51
*694 FILLER_15_55
*695 FILLER_15_57
*696 FILLER_15_69
*697 FILLER_15_81
*698 FILLER_15_93
*699 FILLER_16_109
*700 FILLER_16_121
*701 FILLER_16_133
*702 FILLER_16_139
*703 FILLER_16_141
*704 FILLER_16_15
*705 FILLER_16_150
*706 FILLER_16_159
*707 FILLER_16_171
*708 FILLER_16_183
*709 FILLER_16_195
*710 FILLER_16_197
*711 FILLER_16_201
*712 FILLER_16_224
*713 FILLER_16_236
*714 FILLER_16_248
*715 FILLER_16_253
*716 FILLER_16_27
*717 FILLER_16_276
*718 FILLER_16_288
*719 FILLER_16_29
*720 FILLER_16_3
*721 FILLER_16_300
*722 FILLER_16_309
*723 FILLER_16_321
*724 FILLER_16_333
*725 FILLER_16_345
*726 FILLER_16_357
*727 FILLER_16_363
*728 FILLER_16_365
*729 FILLER_16_377
*730 FILLER_16_389
*731 FILLER_16_401
*732 FILLER_16_41
*733 FILLER_16_53
*734 FILLER_16_65
*735 FILLER_16_77
*736 FILLER_16_83
*737 FILLER_16_85
*738 FILLER_16_97
*739 FILLER_17_113
*740 FILLER_17_125
*741 FILLER_17_15
*742 FILLER_17_151
*743 FILLER_17_163
*744 FILLER_17_167
*745 FILLER_17_169
*746 FILLER_17_185
*747 FILLER_17_197
*748 FILLER_17_205
*749 FILLER_17_217
*750 FILLER_17_223
*751 FILLER_17_225
*752 FILLER_17_237
*753 FILLER_17_249
*754 FILLER_17_255
*755 FILLER_17_269
*756 FILLER_17_27
*757 FILLER_17_277
*758 FILLER_17_281
*759 FILLER_17_293
*760 FILLER_17_3
*761 FILLER_17_305
*762 FILLER_17_317
*763 FILLER_17_329
*764 FILLER_17_335
*765 FILLER_17_337
*766 FILLER_17_349
*767 FILLER_17_361
*768 FILLER_17_373
*769 FILLER_17_385
*770 FILLER_17_39
*771 FILLER_17_391
*772 FILLER_17_393
*773 FILLER_17_405
*774 FILLER_17_51
*775 FILLER_17_55
*776 FILLER_17_57
*777 FILLER_17_69
*778 FILLER_17_81
*779 FILLER_18_109
*780 FILLER_18_121
*781 FILLER_18_133
*782 FILLER_18_139
*783 FILLER_18_141
*784 FILLER_18_15
*785 FILLER_18_153
*786 FILLER_18_165
*787 FILLER_18_169
*788 FILLER_18_177
*789 FILLER_18_189
*790 FILLER_18_195
*791 FILLER_18_204
*792 FILLER_18_216
*793 FILLER_18_228
*794 FILLER_18_240
*795 FILLER_18_253
*796 FILLER_18_261
*797 FILLER_18_266
*798 FILLER_18_27
*799 FILLER_18_278
*800 FILLER_18_29
*801 FILLER_18_290
*802 FILLER_18_3
*803 FILLER_18_302
*804 FILLER_18_309
*805 FILLER_18_321
*806 FILLER_18_333
*807 FILLER_18_345
*808 FILLER_18_357
*809 FILLER_18_363
*810 FILLER_18_365
*811 FILLER_18_377
*812 FILLER_18_389
*813 FILLER_18_401
*814 FILLER_18_41
*815 FILLER_18_53
*816 FILLER_18_65
*817 FILLER_18_77
*818 FILLER_18_83
*819 FILLER_18_85
*820 FILLER_18_97
*821 FILLER_19_108
*822 FILLER_19_113
*823 FILLER_19_125
*824 FILLER_19_136
*825 FILLER_19_148
*826 FILLER_19_15
*827 FILLER_19_160
*828 FILLER_19_169
*829 FILLER_19_173
*830 FILLER_19_187
*831 FILLER_19_199
*832 FILLER_19_211
*833 FILLER_19_223
*834 FILLER_19_225
*835 FILLER_19_237
*836 FILLER_19_249
*837 FILLER_19_261
*838 FILLER_19_27
*839 FILLER_19_273
*840 FILLER_19_279
*841 FILLER_19_281
*842 FILLER_19_293
*843 FILLER_19_3
*844 FILLER_19_305
*845 FILLER_19_317
*846 FILLER_19_329
*847 FILLER_19_335
*848 FILLER_19_337
*849 FILLER_19_349
*850 FILLER_19_361
*851 FILLER_19_373
*852 FILLER_19_385
*853 FILLER_19_39
*854 FILLER_19_391
*855 FILLER_19_393
*856 FILLER_19_405
*857 FILLER_19_51
*858 FILLER_19_55
*859 FILLER_19_57
*860 FILLER_19_69
*861 FILLER_19_77
*862 FILLER_19_96
*863 FILLER_1_105
*864 FILLER_1_111
*865 FILLER_1_113
*866 FILLER_1_125
*867 FILLER_1_137
*868 FILLER_1_149
*869 FILLER_1_15
*870 FILLER_1_161
*871 FILLER_1_167
*872 FILLER_1_169
*873 FILLER_1_181
*874 FILLER_1_193
*875 FILLER_1_205
*876 FILLER_1_217
*877 FILLER_1_223
*878 FILLER_1_225
*879 FILLER_1_237
*880 FILLER_1_249
*881 FILLER_1_261
*882 FILLER_1_27
*883 FILLER_1_273
*884 FILLER_1_279
*885 FILLER_1_281
*886 FILLER_1_293
*887 FILLER_1_3
*888 FILLER_1_305
*889 FILLER_1_317
*890 FILLER_1_329
*891 FILLER_1_335
*892 FILLER_1_337
*893 FILLER_1_349
*894 FILLER_1_361
*895 FILLER_1_373
*896 FILLER_1_385
*897 FILLER_1_39
*898 FILLER_1_391
*899 FILLER_1_393
*900 FILLER_1_405
*901 FILLER_1_51
*902 FILLER_1_55
*903 FILLER_1_57
*904 FILLER_1_69
*905 FILLER_1_81
*906 FILLER_1_93
*907 FILLER_20_102
*908 FILLER_20_114
*909 FILLER_20_137
*910 FILLER_20_141
*911 FILLER_20_15
*912 FILLER_20_153
*913 FILLER_20_165
*914 FILLER_20_169
*915 FILLER_20_175
*916 FILLER_20_187
*917 FILLER_20_195
*918 FILLER_20_197
*919 FILLER_20_209
*920 FILLER_20_221
*921 FILLER_20_233
*922 FILLER_20_245
*923 FILLER_20_251
*924 FILLER_20_253
*925 FILLER_20_265
*926 FILLER_20_27
*927 FILLER_20_277
*928 FILLER_20_289
*929 FILLER_20_29
*930 FILLER_20_3
*931 FILLER_20_301
*932 FILLER_20_307
*933 FILLER_20_309
*934 FILLER_20_321
*935 FILLER_20_333
*936 FILLER_20_345
*937 FILLER_20_357
*938 FILLER_20_363
*939 FILLER_20_365
*940 FILLER_20_377
*941 FILLER_20_389
*942 FILLER_20_401
*943 FILLER_20_41
*944 FILLER_20_53
*945 FILLER_20_65
*946 FILLER_20_77
*947 FILLER_20_83
*948 FILLER_21_102
*949 FILLER_21_110
*950 FILLER_21_113
*951 FILLER_21_125
*952 FILLER_21_137
*953 FILLER_21_149
*954 FILLER_21_15
*955 FILLER_21_155
*956 FILLER_21_167
*957 FILLER_21_169
*958 FILLER_21_177
*959 FILLER_21_191
*960 FILLER_21_197
*961 FILLER_21_209
*962 FILLER_21_221
*963 FILLER_21_225
*964 FILLER_21_237
*965 FILLER_21_249
*966 FILLER_21_257
*967 FILLER_21_273
*968 FILLER_21_279
*969 FILLER_21_281
*970 FILLER_21_293
*971 FILLER_21_3
*972 FILLER_21_305
*973 FILLER_21_317
*974 FILLER_21_329
*975 FILLER_21_335
*976 FILLER_21_337
*977 FILLER_21_34
*978 FILLER_21_349
*979 FILLER_21_361
*980 FILLER_21_373
*981 FILLER_21_385
*982 FILLER_21_391
*983 FILLER_21_393
*984 FILLER_21_405
*985 FILLER_21_46
*986 FILLER_21_54
*987 FILLER_21_57
*988 FILLER_21_69
*989 FILLER_21_78
*990 FILLER_21_90
*991 FILLER_22_102
*992 FILLER_22_11
*993 FILLER_22_119
*994 FILLER_22_131
*995 FILLER_22_139
*996 FILLER_22_141
*997 FILLER_22_153
*998 FILLER_22_165
*999 FILLER_22_177
*1000 FILLER_22_187
*1001 FILLER_22_19
*1002 FILLER_22_195
*1003 FILLER_22_197
*1004 FILLER_22_209
*1005 FILLER_22_221
*1006 FILLER_22_231
*1007 FILLER_22_239
*1008 FILLER_22_250
*1009 FILLER_22_253
*1010 FILLER_22_259
*1011 FILLER_22_27
*1012 FILLER_22_271
*1013 FILLER_22_283
*1014 FILLER_22_295
*1015 FILLER_22_307
*1016 FILLER_22_309
*1017 FILLER_22_321
*1018 FILLER_22_333
*1019 FILLER_22_34
*1020 FILLER_22_345
*1021 FILLER_22_357
*1022 FILLER_22_363
*1023 FILLER_22_365
*1024 FILLER_22_377
*1025 FILLER_22_389
*1026 FILLER_22_46
*1027 FILLER_22_58
*1028 FILLER_22_7
*1029 FILLER_22_70
*1030 FILLER_22_82
*1031 FILLER_23_106
*1032 FILLER_23_113
*1033 FILLER_23_125
*1034 FILLER_23_137
*1035 FILLER_23_149
*1036 FILLER_23_15
*1037 FILLER_23_167
*1038 FILLER_23_175
*1039 FILLER_23_187
*1040 FILLER_23_199
*1041 FILLER_23_211
*1042 FILLER_23_223
*1043 FILLER_23_232
*1044 FILLER_23_244
*1045 FILLER_23_256
*1046 FILLER_23_268
*1047 FILLER_23_27
*1048 FILLER_23_279
*1049 FILLER_23_281
*1050 FILLER_23_293
*1051 FILLER_23_3
*1052 FILLER_23_305
*1053 FILLER_23_31
*1054 FILLER_23_311
*1055 FILLER_23_319
*1056 FILLER_23_331
*1057 FILLER_23_335
*1058 FILLER_23_337
*1059 FILLER_23_349
*1060 FILLER_23_361
*1061 FILLER_23_373
*1062 FILLER_23_385
*1063 FILLER_23_391
*1064 FILLER_23_393
*1065 FILLER_23_405
*1066 FILLER_23_43
*1067 FILLER_23_55
*1068 FILLER_23_57
*1069 FILLER_23_69
*1070 FILLER_23_75
*1071 FILLER_23_82
*1072 FILLER_23_94
*1073 FILLER_24_103
*1074 FILLER_24_109
*1075 FILLER_24_121
*1076 FILLER_24_133
*1077 FILLER_24_139
*1078 FILLER_24_141
*1079 FILLER_24_175
*1080 FILLER_24_187
*1081 FILLER_24_195
*1082 FILLER_24_205
*1083 FILLER_24_21
*1084 FILLER_24_217
*1085 FILLER_24_226
*1086 FILLER_24_234
*1087 FILLER_24_250
*1088 FILLER_24_27
*1089 FILLER_24_275
*1090 FILLER_24_287
*1091 FILLER_24_293
*1092 FILLER_24_298
*1093 FILLER_24_306
*1094 FILLER_24_309
*1095 FILLER_24_321
*1096 FILLER_24_333
*1097 FILLER_24_345
*1098 FILLER_24_357
*1099 FILLER_24_363
*1100 FILLER_24_365
*1101 FILLER_24_377
*1102 FILLER_24_389
*1103 FILLER_24_401
*1104 FILLER_24_50
*1105 FILLER_24_62
*1106 FILLER_24_9
*1107 FILLER_24_91
*1108 FILLER_25_106
*1109 FILLER_25_113
*1110 FILLER_25_117
*1111 FILLER_25_127
*1112 FILLER_25_139
*1113 FILLER_25_145
*1114 FILLER_25_169
*1115 FILLER_25_177
*1116 FILLER_25_189
*1117 FILLER_25_197
*1118 FILLER_25_221
*1119 FILLER_25_225
*1120 FILLER_25_237
*1121 FILLER_25_249
*1122 FILLER_25_261
*1123 FILLER_25_27
*1124 FILLER_25_273
*1125 FILLER_25_277
*1126 FILLER_25_281
*1127 FILLER_25_298
*1128 FILLER_25_3
*1129 FILLER_25_337
*1130 FILLER_25_349
*1131 FILLER_25_361
*1132 FILLER_25_373
*1133 FILLER_25_385
*1134 FILLER_25_391
*1135 FILLER_25_393
*1136 FILLER_25_397
*1137 FILLER_25_52
*1138 FILLER_25_57
*1139 FILLER_25_7
*1140 FILLER_25_72
*1141 FILLER_25_78
*1142 FILLER_25_90
*1143 FILLER_25_96
*1144 FILLER_26_109
*1145 FILLER_26_121
*1146 FILLER_26_133
*1147 FILLER_26_139
*1148 FILLER_26_141
*1149 FILLER_26_153
*1150 FILLER_26_165
*1151 FILLER_26_177
*1152 FILLER_26_185
*1153 FILLER_26_194
*1154 FILLER_26_197
*1155 FILLER_26_209
*1156 FILLER_26_222
*1157 FILLER_26_23
*1158 FILLER_26_234
*1159 FILLER_26_246
*1160 FILLER_26_253
*1161 FILLER_26_269
*1162 FILLER_26_27
*1163 FILLER_26_281
*1164 FILLER_26_29
*1165 FILLER_26_293
*1166 FILLER_26_305
*1167 FILLER_26_309
*1168 FILLER_26_329
*1169 FILLER_26_341
*1170 FILLER_26_353
*1171 FILLER_26_361
*1172 FILLER_26_365
*1173 FILLER_26_377
*1174 FILLER_26_389
*1175 FILLER_26_401
*1176 FILLER_26_52
*1177 FILLER_26_64
*1178 FILLER_26_7
*1179 FILLER_26_76
*1180 FILLER_26_85
*1181 FILLER_26_97
*1182 FILLER_27_111
*1183 FILLER_27_130
*1184 FILLER_27_142
*1185 FILLER_27_154
*1186 FILLER_27_166
*1187 FILLER_27_169
*1188 FILLER_27_181
*1189 FILLER_27_19
*1190 FILLER_27_193
*1191 FILLER_27_205
*1192 FILLER_27_217
*1193 FILLER_27_223
*1194 FILLER_27_225
*1195 FILLER_27_237
*1196 FILLER_27_249
*1197 FILLER_27_261
*1198 FILLER_27_273
*1199 FILLER_27_279
*1200 FILLER_27_281
*1201 FILLER_27_293
*1202 FILLER_27_305
*1203 FILLER_27_31
*1204 FILLER_27_313
*1205 FILLER_27_317
*1206 FILLER_27_329
*1207 FILLER_27_335
*1208 FILLER_27_337
*1209 FILLER_27_349
*1210 FILLER_27_35
*1211 FILLER_27_361
*1212 FILLER_27_373
*1213 FILLER_27_385
*1214 FILLER_27_391
*1215 FILLER_27_393
*1216 FILLER_27_405
*1217 FILLER_27_43
*1218 FILLER_27_55
*1219 FILLER_27_57
*1220 FILLER_27_69
*1221 FILLER_27_7
*1222 FILLER_27_81
*1223 FILLER_27_90
*1224 FILLER_27_96
*1225 FILLER_28_11
*1226 FILLER_28_121
*1227 FILLER_28_133
*1228 FILLER_28_139
*1229 FILLER_28_15
*1230 FILLER_28_151
*1231 FILLER_28_163
*1232 FILLER_28_175
*1233 FILLER_28_183
*1234 FILLER_28_197
*1235 FILLER_28_209
*1236 FILLER_28_221
*1237 FILLER_28_227
*1238 FILLER_28_231
*1239 FILLER_28_239
*1240 FILLER_28_249
*1241 FILLER_28_253
*1242 FILLER_28_265
*1243 FILLER_28_27
*1244 FILLER_28_277
*1245 FILLER_28_289
*1246 FILLER_28_29
*1247 FILLER_28_3
*1248 FILLER_28_301
*1249 FILLER_28_307
*1250 FILLER_28_309
*1251 FILLER_28_321
*1252 FILLER_28_333
*1253 FILLER_28_345
*1254 FILLER_28_35
*1255 FILLER_28_357
*1256 FILLER_28_363
*1257 FILLER_28_365
*1258 FILLER_28_377
*1259 FILLER_28_389
*1260 FILLER_28_401
*1261 FILLER_28_46
*1262 FILLER_28_52
*1263 FILLER_28_60
*1264 FILLER_28_66
*1265 FILLER_28_78
*1266 FILLER_28_98
*1267 FILLER_29_109
*1268 FILLER_29_113
*1269 FILLER_29_125
*1270 FILLER_29_137
*1271 FILLER_29_149
*1272 FILLER_29_161
*1273 FILLER_29_167
*1274 FILLER_29_169
*1275 FILLER_29_182
*1276 FILLER_29_186
*1277 FILLER_29_198
*1278 FILLER_29_210
*1279 FILLER_29_222
*1280 FILLER_29_241
*1281 FILLER_29_253
*1282 FILLER_29_265
*1283 FILLER_29_277
*1284 FILLER_29_281
*1285 FILLER_29_293
*1286 FILLER_29_301
*1287 FILLER_29_31
*1288 FILLER_29_314
*1289 FILLER_29_326
*1290 FILLER_29_334
*1291 FILLER_29_337
*1292 FILLER_29_349
*1293 FILLER_29_361
*1294 FILLER_29_373
*1295 FILLER_29_385
*1296 FILLER_29_391
*1297 FILLER_29_393
*1298 FILLER_29_405
*1299 FILLER_29_43
*1300 FILLER_29_55
*1301 FILLER_29_73
*1302 FILLER_29_85
*1303 FILLER_29_97
*1304 FILLER_2_109
*1305 FILLER_2_121
*1306 FILLER_2_133
*1307 FILLER_2_139
*1308 FILLER_2_141
*1309 FILLER_2_15
*1310 FILLER_2_153
*1311 FILLER_2_165
*1312 FILLER_2_177
*1313 FILLER_2_189
*1314 FILLER_2_195
*1315 FILLER_2_197
*1316 FILLER_2_209
*1317 FILLER_2_221
*1318 FILLER_2_233
*1319 FILLER_2_245
*1320 FILLER_2_251
*1321 FILLER_2_253
*1322 FILLER_2_265
*1323 FILLER_2_27
*1324 FILLER_2_277
*1325 FILLER_2_289
*1326 FILLER_2_29
*1327 FILLER_2_3
*1328 FILLER_2_301
*1329 FILLER_2_307
*1330 FILLER_2_309
*1331 FILLER_2_321
*1332 FILLER_2_333
*1333 FILLER_2_345
*1334 FILLER_2_357
*1335 FILLER_2_363
*1336 FILLER_2_365
*1337 FILLER_2_377
*1338 FILLER_2_389
*1339 FILLER_2_401
*1340 FILLER_2_41
*1341 FILLER_2_53
*1342 FILLER_2_65
*1343 FILLER_2_77
*1344 FILLER_2_83
*1345 FILLER_2_85
*1346 FILLER_2_97
*1347 FILLER_30_109
*1348 FILLER_30_121
*1349 FILLER_30_133
*1350 FILLER_30_139
*1351 FILLER_30_141
*1352 FILLER_30_153
*1353 FILLER_30_165
*1354 FILLER_30_177
*1355 FILLER_30_190
*1356 FILLER_30_202
*1357 FILLER_30_214
*1358 FILLER_30_226
*1359 FILLER_30_233
*1360 FILLER_30_245
*1361 FILLER_30_251
*1362 FILLER_30_253
*1363 FILLER_30_265
*1364 FILLER_30_273
*1365 FILLER_30_279
*1366 FILLER_30_285
*1367 FILLER_30_291
*1368 FILLER_30_303
*1369 FILLER_30_307
*1370 FILLER_30_309
*1371 FILLER_30_321
*1372 FILLER_30_333
*1373 FILLER_30_345
*1374 FILLER_30_35
*1375 FILLER_30_357
*1376 FILLER_30_363
*1377 FILLER_30_365
*1378 FILLER_30_377
*1379 FILLER_30_389
*1380 FILLER_30_401
*1381 FILLER_30_47
*1382 FILLER_30_59
*1383 FILLER_30_7
*1384 FILLER_30_71
*1385 FILLER_30_83
*1386 FILLER_30_85
*1387 FILLER_30_97
*1388 FILLER_31_105
*1389 FILLER_31_111
*1390 FILLER_31_113
*1391 FILLER_31_12
*1392 FILLER_31_125
*1393 FILLER_31_137
*1394 FILLER_31_149
*1395 FILLER_31_161
*1396 FILLER_31_167
*1397 FILLER_31_169
*1398 FILLER_31_192
*1399 FILLER_31_201
*1400 FILLER_31_209
*1401 FILLER_31_221
*1402 FILLER_31_225
*1403 FILLER_31_237
*1404 FILLER_31_249
*1405 FILLER_31_261
*1406 FILLER_31_273
*1407 FILLER_31_279
*1408 FILLER_31_281
*1409 FILLER_31_291
*1410 FILLER_31_303
*1411 FILLER_31_315
*1412 FILLER_31_32
*1413 FILLER_31_327
*1414 FILLER_31_335
*1415 FILLER_31_337
*1416 FILLER_31_349
*1417 FILLER_31_361
*1418 FILLER_31_373
*1419 FILLER_31_385
*1420 FILLER_31_391
*1421 FILLER_31_393
*1422 FILLER_31_405
*1423 FILLER_31_42
*1424 FILLER_31_54
*1425 FILLER_31_57
*1426 FILLER_31_69
*1427 FILLER_31_81
*1428 FILLER_31_93
*1429 FILLER_32_109
*1430 FILLER_32_121
*1431 FILLER_32_126
*1432 FILLER_32_138
*1433 FILLER_32_148
*1434 FILLER_32_160
*1435 FILLER_32_172
*1436 FILLER_32_184
*1437 FILLER_32_201
*1438 FILLER_32_212
*1439 FILLER_32_224
*1440 FILLER_32_236
*1441 FILLER_32_248
*1442 FILLER_32_253
*1443 FILLER_32_26
*1444 FILLER_32_261
*1445 FILLER_32_267
*1446 FILLER_32_276
*1447 FILLER_32_288
*1448 FILLER_32_29
*1449 FILLER_32_300
*1450 FILLER_32_309
*1451 FILLER_32_321
*1452 FILLER_32_325
*1453 FILLER_32_329
*1454 FILLER_32_341
*1455 FILLER_32_353
*1456 FILLER_32_361
*1457 FILLER_32_365
*1458 FILLER_32_377
*1459 FILLER_32_389
*1460 FILLER_32_401
*1461 FILLER_32_41
*1462 FILLER_32_53
*1463 FILLER_32_65
*1464 FILLER_32_7
*1465 FILLER_32_77
*1466 FILLER_32_83
*1467 FILLER_32_85
*1468 FILLER_32_97
*1469 FILLER_33_104
*1470 FILLER_33_113
*1471 FILLER_33_125
*1472 FILLER_33_133
*1473 FILLER_33_139
*1474 FILLER_33_15
*1475 FILLER_33_151
*1476 FILLER_33_163
*1477 FILLER_33_167
*1478 FILLER_33_169
*1479 FILLER_33_181
*1480 FILLER_33_193
*1481 FILLER_33_205
*1482 FILLER_33_216
*1483 FILLER_33_22
*1484 FILLER_33_234
*1485 FILLER_33_246
*1486 FILLER_33_257
*1487 FILLER_33_269
*1488 FILLER_33_277
*1489 FILLER_33_281
*1490 FILLER_33_293
*1491 FILLER_33_3
*1492 FILLER_33_305
*1493 FILLER_33_317
*1494 FILLER_33_329
*1495 FILLER_33_335
*1496 FILLER_33_34
*1497 FILLER_33_350
*1498 FILLER_33_362
*1499 FILLER_33_374
*1500 FILLER_33_386
*1501 FILLER_33_393
*1502 FILLER_33_405
*1503 FILLER_33_46
*1504 FILLER_33_51
*1505 FILLER_33_55
*1506 FILLER_33_57
*1507 FILLER_33_68
*1508 FILLER_33_80
*1509 FILLER_33_92
*1510 FILLER_34_101
*1511 FILLER_34_119
*1512 FILLER_34_131
*1513 FILLER_34_139
*1514 FILLER_34_149
*1515 FILLER_34_15
*1516 FILLER_34_161
*1517 FILLER_34_173
*1518 FILLER_34_185
*1519 FILLER_34_193
*1520 FILLER_34_197
*1521 FILLER_34_207
*1522 FILLER_34_219
*1523 FILLER_34_231
*1524 FILLER_34_243
*1525 FILLER_34_251
*1526 FILLER_34_253
*1527 FILLER_34_265
*1528 FILLER_34_27
*1529 FILLER_34_277
*1530 FILLER_34_289
*1531 FILLER_34_29
*1532 FILLER_34_3
*1533 FILLER_34_301
*1534 FILLER_34_307
*1535 FILLER_34_309
*1536 FILLER_34_313
*1537 FILLER_34_333
*1538 FILLER_34_345
*1539 FILLER_34_357
*1540 FILLER_34_363
*1541 FILLER_34_365
*1542 FILLER_34_377
*1543 FILLER_34_389
*1544 FILLER_34_397
*1545 FILLER_34_41
*1546 FILLER_34_53
*1547 FILLER_34_70
*1548 FILLER_34_77
*1549 FILLER_34_83
*1550 FILLER_34_85
*1551 FILLER_34_91
*1552 FILLER_35_111
*1553 FILLER_35_128
*1554 FILLER_35_140
*1555 FILLER_35_144
*1556 FILLER_35_15
*1557 FILLER_35_154
*1558 FILLER_35_158
*1559 FILLER_35_164
*1560 FILLER_35_169
*1561 FILLER_35_181
*1562 FILLER_35_193
*1563 FILLER_35_205
*1564 FILLER_35_217
*1565 FILLER_35_223
*1566 FILLER_35_225
*1567 FILLER_35_237
*1568 FILLER_35_245
*1569 FILLER_35_251
*1570 FILLER_35_27
*1571 FILLER_35_275
*1572 FILLER_35_279
*1573 FILLER_35_281
*1574 FILLER_35_293
*1575 FILLER_35_3
*1576 FILLER_35_305
*1577 FILLER_35_313
*1578 FILLER_35_337
*1579 FILLER_35_349
*1580 FILLER_35_361
*1581 FILLER_35_373
*1582 FILLER_35_385
*1583 FILLER_35_39
*1584 FILLER_35_391
*1585 FILLER_35_393
*1586 FILLER_35_405
*1587 FILLER_35_51
*1588 FILLER_35_55
*1589 FILLER_35_76
*1590 FILLER_35_98
*1591 FILLER_36_111
*1592 FILLER_36_123
*1593 FILLER_36_135
*1594 FILLER_36_139
*1595 FILLER_36_15
*1596 FILLER_36_178
*1597 FILLER_36_190
*1598 FILLER_36_197
*1599 FILLER_36_209
*1600 FILLER_36_221
*1601 FILLER_36_233
*1602 FILLER_36_245
*1603 FILLER_36_251
*1604 FILLER_36_253
*1605 FILLER_36_261
*1606 FILLER_36_267
*1607 FILLER_36_27
*1608 FILLER_36_279
*1609 FILLER_36_29
*1610 FILLER_36_291
*1611 FILLER_36_3
*1612 FILLER_36_303
*1613 FILLER_36_307
*1614 FILLER_36_309
*1615 FILLER_36_313
*1616 FILLER_36_321
*1617 FILLER_36_335
*1618 FILLER_36_347
*1619 FILLER_36_359
*1620 FILLER_36_363
*1621 FILLER_36_365
*1622 FILLER_36_377
*1623 FILLER_36_389
*1624 FILLER_36_401
*1625 FILLER_36_41
*1626 FILLER_36_47
*1627 FILLER_36_51
*1628 FILLER_36_57
*1629 FILLER_36_66
*1630 FILLER_36_78
*1631 FILLER_36_85
*1632 FILLER_36_97
*1633 FILLER_37_102
*1634 FILLER_37_110
*1635 FILLER_37_113
*1636 FILLER_37_125
*1637 FILLER_37_131
*1638 FILLER_37_167
*1639 FILLER_37_169
*1640 FILLER_37_181
*1641 FILLER_37_193
*1642 FILLER_37_199
*1643 FILLER_37_21
*1644 FILLER_37_225
*1645 FILLER_37_245
*1646 FILLER_37_257
*1647 FILLER_37_269
*1648 FILLER_37_277
*1649 FILLER_37_281
*1650 FILLER_37_293
*1651 FILLER_37_301
*1652 FILLER_37_307
*1653 FILLER_37_316
*1654 FILLER_37_324
*1655 FILLER_37_33
*1656 FILLER_37_330
*1657 FILLER_37_337
*1658 FILLER_37_349
*1659 FILLER_37_361
*1660 FILLER_37_373
*1661 FILLER_37_385
*1662 FILLER_37_391
*1663 FILLER_37_393
*1664 FILLER_37_405
*1665 FILLER_37_41
*1666 FILLER_37_66
*1667 FILLER_37_78
*1668 FILLER_37_9
*1669 FILLER_37_90
*1670 FILLER_38_109
*1671 FILLER_38_121
*1672 FILLER_38_133
*1673 FILLER_38_139
*1674 FILLER_38_141
*1675 FILLER_38_15
*1676 FILLER_38_153
*1677 FILLER_38_168
*1678 FILLER_38_180
*1679 FILLER_38_192
*1680 FILLER_38_197
*1681 FILLER_38_209
*1682 FILLER_38_217
*1683 FILLER_38_226
*1684 FILLER_38_241
*1685 FILLER_38_249
*1686 FILLER_38_253
*1687 FILLER_38_265
*1688 FILLER_38_27
*1689 FILLER_38_277
*1690 FILLER_38_29
*1691 FILLER_38_3
*1692 FILLER_38_301
*1693 FILLER_38_307
*1694 FILLER_38_327
*1695 FILLER_38_335
*1696 FILLER_38_350
*1697 FILLER_38_362
*1698 FILLER_38_365
*1699 FILLER_38_377
*1700 FILLER_38_389
*1701 FILLER_38_401
*1702 FILLER_38_41
*1703 FILLER_38_55
*1704 FILLER_38_70
*1705 FILLER_38_82
*1706 FILLER_38_85
*1707 FILLER_38_97
*1708 FILLER_39_102
*1709 FILLER_39_110
*1710 FILLER_39_113
*1711 FILLER_39_125
*1712 FILLER_39_137
*1713 FILLER_39_149
*1714 FILLER_39_161
*1715 FILLER_39_167
*1716 FILLER_39_169
*1717 FILLER_39_18
*1718 FILLER_39_181
*1719 FILLER_39_193
*1720 FILLER_39_205
*1721 FILLER_39_217