*SPEF "ieee 1481-1999"
*DESIGN "SarsaNada_e6"
*DATE "18:20:37 Tuesday September 16, 2025"
*VENDOR "The OpenROAD Project"
*PROGRAM "OpenROAD"
*VERSION "edf00dff99f6c40d67a30c0e22a8191c5d2ed9d6"
*DESIGN_FLOW "NAME_SCOPE LOCAL" "PIN_CAP NONE"
*DIVIDER /
*DELIMITER :
*BUS_DELIMITER []
*T_UNIT 1 NS
*C_UNIT 1 PF
*R_UNIT 1 OHM
*L_UNIT 1 HENRY

*NAME_MAP
*1 A[0]
*2 A[1]
*3 B[0]
*4 B[1]
*5 P[0]
*6 P[1]
*7 P[2]
*8 P[3]
*11 _0_
*12 _1_
*13 _2_
*14 net1
*15 net2
*16 net3
*17 net4
*18 net5
*19 net6
*20 net7
*21 net8
*22 FILLER_0_15
*23 FILLER_0_27
*24 FILLER_0_29
*25 FILLER_0_3
*26 FILLER_0_41
*27 FILLER_0_53
*28 FILLER_0_57
*29 FILLER_0_69
*30 FILLER_1_15
*31 FILLER_1_27
*32 FILLER_1_3
*33 FILLER_1_39
*34 FILLER_1_51
*35 FILLER_1_55
*36 FILLER_1_57
*37 FILLER_1_69
*38 FILLER_2_18
*39 FILLER_2_26
*40 FILLER_2_29
*41 FILLER_2_41
*42 FILLER_2_53
*43 FILLER_2_6
*44 FILLER_2_65
*45 FILLER_2_77
*46 FILLER_3_15
*47 FILLER_3_27
*48 FILLER_3_3
*49 FILLER_3_39
*50 FILLER_3_51
*51 FILLER_3_55
*52 FILLER_3_57
*53 FILLER_3_69
*54 FILLER_4_11
*55 FILLER_4_25
*56 FILLER_4_34
*57 FILLER_4_46
*58 FILLER_4_58
*59 FILLER_4_7
*60 FILLER_4_70
*61 FILLER_4_76
*62 FILLER_5_14
*63 FILLER_5_34
*64 FILLER_5_46
*65 FILLER_5_54
*66 FILLER_5_57
*67 FILLER_5_6
*68 FILLER_5_66
*69 FILLER_5_71
*70 FILLER_6_18
*71 FILLER_6_26
*72 FILLER_6_29
*73 FILLER_6_41
*74 FILLER_6_53
*75 FILLER_6_6
*76 FILLER_6_65
*77 FILLER_7_18
*78 FILLER_7_30
*79 FILLER_7_42
*80 FILLER_7_54
*81 FILLER_7_57
*82 FILLER_7_6
*83 FILLER_7_69
*84 FILLER_8_15
*85 FILLER_8_27
*86 FILLER_8_29
*87 FILLER_8_3
*88 FILLER_8_41
*89 FILLER_8_53
*90 FILLER_8_65
*91 FILLER_8_77
*92 FILLER_9_15
*93 FILLER_9_27
*94 FILLER_9_29
*95 FILLER_9_3
*96 FILLER_9_41
*97 FILLER_9_53
*98 FILLER_9_57
*99 FILLER_9_69
*100 PHY_EDGE_ROW_0_Left_10
*101 PHY_EDGE_ROW_0_Right_0
*102 PHY_EDGE_ROW_1_Left_11
*103 PHY_EDGE_ROW_1_Right_1
*104 PHY_EDGE_ROW_2_Left_12
*105 PHY_EDGE_ROW_2_Right_2
*106 PHY_EDGE_ROW_3_Left_13
*107 PHY_EDGE_ROW_3_Right_3
*108 PHY_EDGE_ROW_4_Left_14
*109 PHY_EDGE_ROW_4_Right_4
*110 PHY_EDGE_ROW_5_Left_15
*111 PHY_EDGE_ROW_5_Right_5
*112 PHY_EDGE_ROW_6_Left_16
*113 PHY_EDGE_ROW_6_Right_6
*114 PHY_EDGE_ROW_7_Left_17
*115 PHY_EDGE_ROW_7_Right_7
*116 PHY_EDGE_ROW_8_Left_18
*117 PHY_EDGE_ROW_8_Right_8
*118 PHY_EDGE_ROW_9_Left_19
*119 PHY_EDGE_ROW_9_Right_9
*120 TAP_TAPCELL_ROW_0_20
*121 TAP_TAPCELL_ROW_0_21
*122 TAP_TAPCELL_ROW_1_22
*123 TAP_TAPCELL_ROW_2_23
*124 TAP_TAPCELL_ROW_3_24
*125 TAP_TAPCELL_ROW_4_25
*126 TAP_TAPCELL_ROW_5_26
*127 TAP_TAPCELL_ROW_6_27
*128 TAP_TAPCELL_ROW_7_28
*129 TAP_TAPCELL_ROW_8_29
*130 TAP_TAPCELL_ROW_9_30
*131 TAP_TAPCELL_ROW_9_31
*132 _3_
*133 _4_
*134 _5_
*135 _6_
*136 _7_
*137 _8_
*138 _9_
*139 input1
*140 input2
*141 input3
*142 input4
*143 output5
*144 output6
*145 output7
*146 output8

*PORTS
A[0] I
A[1] I
B[0] I
B[1] I
P[0] O
P[1] O
P[2] O
P[3] O

*D_NET *1 0.000574322
*CONN
*P A[0] I
*I *139:A I *D sky130_fd_sc_hd__buf_1
*CAP
1 A[0] 0.000275863
2 *139:A 0.000275863
3 *139:A *140:A 2.25951e-05
*RES
1 A[0] *139:A 20.4803 
*END

*D_NET *2 0.000532436
*CONN
*P A[1] I
*I *140:A I *D sky130_fd_sc_hd__buf_1
*CAP
1 A[1] 0.000240536
2 *140:A 0.000240536
3 *140:A *142:A 2.87684e-05
4 *139:A *140:A 2.25951e-05
*RES
1 A[1] *140:A 18.73 
*END

*D_NET *3 0.000618322
*CONN
*P B[0] I
*I *141:A I *D sky130_fd_sc_hd__buf_1
*CAP
1 B[0] 0.000295572
2 *141:A 0.000295572
3 *141:A P[0] 2.71788e-05
*RES
1 B[0] *141:A 20.7838 
*END

*D_NET *4 0.000670164
*CONN
*P B[1] I
*I *142:A I *D sky130_fd_sc_hd__buf_1
*CAP
1 B[1] 0.000305702
2 *142:A 0.000305702
3 *142:A P[0] 2.99915e-05
4 *140:A *142:A 2.87684e-05
*RES
1 B[1] *142:A 21.391 
*END

*D_NET *5 0.00078767
*CONN
*P P[0] O
*I *143:X O *D sky130_fd_sc_hd__buf_2
*CAP
1 P[0] 0.00036525
2 *143:X 0.00036525
3 *141:A P[0] 2.71788e-05
4 *142:A P[0] 2.99915e-05
*RES
1 *143:X P[0] 21.4981 
*END

*D_NET *6 0.000492334
*CONN
*P P[1] O
*I *144:X O *D sky130_fd_sc_hd__buf_2
*CAP
1 P[1] 0.000193631
2 *144:X 0.000193631
3 P[1] P[3] 9.28756e-05
4 P[1] *144:A 1.21955e-05
*RES
1 *144:X P[1] 18.1949 
*END

*D_NET *7 0.00062747
*CONN
*P P[2] O
*I *145:X O *D sky130_fd_sc_hd__buf_2
*CAP
1 P[2] 0.000267297
2 *145:X 0.000267297
3 P[2] P[3] 9.28756e-05
*RES
1 *145:X P[2] 19.4092 
*END

*D_NET *8 0.000573308
*CONN
*P P[3] O
*I *146:X O *D sky130_fd_sc_hd__buf_2
*CAP
1 P[3] 0.000193779
2 *146:X 0.000193779
3 P[1] P[3] 9.28756e-05
4 P[2] P[3] 9.28756e-05
*RES
1 *146:X P[3] 18.8021 
*END

*D_NET *11 0.00402135
*CONN
*I *135:A I *D sky130_fd_sc_hd__inv_2
*I *137:A I *D sky130_fd_sc_hd__and2_1
*I *138:C I *D sky130_fd_sc_hd__and3_1
*I *134:Y O *D sky130_fd_sc_hd__nand4_2
*CAP
1 *135:A 0.000179501
2 *137:A 0
3 *138:C 0.000163254
4 *134:Y 0.000238994
5 *11:23 0.000686254
6 *11:6 0.000909001
7 *135:A *137:B 5.46399e-05
8 *135:A *144:A 0.000144773
9 *138:C *136:A2 7.6644e-05
10 *138:C *15:25 1.40415e-05
11 *138:C *16:10 0
12 *138:C *16:19 0
13 *11:6 *136:A1 2.87555e-06
14 *11:6 *136:B1 0.000290704
15 *11:23 *136:A1 5.30637e-06
16 *11:23 *136:B1 1.97695e-05
17 *11:23 *137:B 0.00123559
*RES
1 *134:Y *11:6 12.7107 
2 *11:6 *138:C 21.1571 
3 *11:6 *11:23 13.5893 
4 *11:23 *137:A 9.3 
5 *11:23 *135:A 13.4607 
*END

*D_NET *12 0.00250057
*CONN
*I *137:B I *D sky130_fd_sc_hd__and2_1
*I *136:X O *D sky130_fd_sc_hd__a22o_1
*CAP
1 *137:B 0.000605171
2 *136:X 0.000605171
3 *135:A *137:B 5.46399e-05
4 *11:23 *137:B 0.00123559
*RES
1 *136:X *137:B 31.7786 
*END

*D_NET *13 0.000275942
*CONN
*I *133:B I *D sky130_fd_sc_hd__and2_1
*I *132:X O *D sky130_fd_sc_hd__a21bo_1
*CAP
1 *133:B 1.95758e-05
2 *132:X 1.95758e-05
3 *133:B *138:A 0.000144773
4 *133:B *143:A 5.71472e-05
5 *133:B *15:25 3.48705e-05
*RES
1 *132:X *133:B 19.9571 
*END

*D_NET *14 0.00296681
*CONN
*I *134:D I *D sky130_fd_sc_hd__nand4_2
*I *136:B1 I *D sky130_fd_sc_hd__a22o_1
*I *132:A2 I *D sky130_fd_sc_hd__a21bo_1
*I *139:X O *D sky130_fd_sc_hd__buf_1
*CAP
1 *134:D 0
2 *136:B1 0.000170029
3 *132:A2 0.000115362
4 *139:X 0.000675672
5 *14:12 0.000334363
6 *14:10 0.000724644
7 *132:A2 *15:12 0
8 *132:A2 *16:10 0
9 *132:A2 *16:19 0
10 *132:A2 *17:12 0.000148189
11 *136:B1 *136:A1 4.10886e-05
12 *136:B1 *136:B2 2.44318e-05
13 *136:B1 *17:32 0.00042256
14 *14:10 *136:A1 0
15 *14:10 *15:12 0
16 *14:10 *16:19 0
17 *14:12 *15:12 0
18 *14:12 *16:19 0
19 *11:6 *136:B1 0.000290704
20 *11:23 *136:B1 1.97695e-05
*RES
1 *139:X *14:10 22.925 
2 *14:10 *14:12 0.732143 
3 *14:12 *132:A2 16.05 
4 *14:12 *136:B1 19.7107 
5 *14:10 *134:D 13.8 
*END

*D_NET *15 0.00364646
*CONN
*I *134:C I *D sky130_fd_sc_hd__nand4_2
*I *138:B I *D sky130_fd_sc_hd__and3_1
*I *136:A2 I *D sky130_fd_sc_hd__a22o_1
*I *132:B1_N I *D sky130_fd_sc_hd__a21bo_1
*I *140:X O *D sky130_fd_sc_hd__buf_1
*CAP
1 *134:C 0.000308324
2 *138:B 0
3 *136:A2 0.000125596
4 *132:B1_N 6.16504e-05
5 *140:X 0.000333039
6 *15:25 0.00072055
7 *15:12 0.000809959
8 *15:10 0.000794718
9 *132:B1_N *17:12 0
10 *134:C *17:6 1.86687e-05
11 *134:C *17:32 6.97494e-05
12 *136:A2 *136:A1 0
13 *136:A2 *16:19 0
14 *15:25 *138:A 8.78006e-05
15 *15:25 *143:A 0.000190848
16 *132:A2 *15:12 0
17 *133:B *15:25 3.48705e-05
18 *138:C *136:A2 7.6644e-05
19 *138:C *15:25 1.40415e-05
20 *14:10 *15:12 0
21 *14:12 *15:12 0
*RES
1 *140:X *15:10 17.8357 
2 *15:10 *15:12 2.55357 
3 *15:12 *132:B1_N 14.8357 
4 *15:12 *15:25 12.4286 
5 *15:25 *136:A2 20.2464 
6 *15:25 *138:B 9.3 
7 *15:10 *134:C 17.9429 
*END

*D_NET *16 0.0028493
*CONN
*I *136:A1 I *D sky130_fd_sc_hd__a22o_1
*I *134:B I *D sky130_fd_sc_hd__nand4_2
*I *133:A I *D sky130_fd_sc_hd__and2_1
*I *141:X O *D sky130_fd_sc_hd__buf_1
*CAP
1 *136:A1 0.000288681
2 *134:B 0
3 *133:A 0
4 *141:X 0.000879117
5 *16:19 0.000480538
6 *16:10 0.00107097
7 *136:A1 *136:B2 3.18676e-05
8 *136:A1 *17:32 4.88546e-05
9 *132:A2 *16:10 0
10 *132:A2 *16:19 0
11 *136:A2 *136:A1 0
12 *136:A2 *16:19 0
13 *136:B1 *136:A1 4.10886e-05
14 *138:C *16:10 0
15 *138:C *16:19 0
16 *11:6 *136:A1 2.87555e-06
17 *11:23 *136:A1 5.30637e-06
18 *14:10 *136:A1 0
19 *14:10 *16:19 0
20 *14:12 *16:19 0
*RES
1 *141:X *16:10 25.3893 
2 *16:10 *133:A 13.8 
3 *16:10 *16:19 2.85714 
4 *16:19 *134:B 13.8 
5 *16:19 *136:A1 17.9607 
*END

*D_NET *17 0.00301667
*CONN
*I *136:B2 I *D sky130_fd_sc_hd__a22o_1
*I *134:A I *D sky130_fd_sc_hd__nand4_2
*I *132:A1 I *D sky130_fd_sc_hd__a21bo_1
*I *138:A I *D sky130_fd_sc_hd__and3_1
*I *142:X O *D sky130_fd_sc_hd__buf_1
*CAP
1 *136:B2 7.99171e-06
2 *134:A 0
3 *132:A1 0
4 *138:A 0.000293831
5 *142:X 0.000396514
6 *17:32 0.000178795
7 *17:12 0.000397932
8 *17:6 0.000671418
9 *138:A *143:A 7.32955e-05
10 *132:A2 *17:12 0.000148189
11 *132:B1_N *17:12 0
12 *133:B *138:A 0.000144773
13 *134:C *17:6 1.86687e-05
14 *134:C *17:32 6.97494e-05
15 *136:A1 *136:B2 3.18676e-05
16 *136:A1 *17:32 4.88546e-05
17 *136:B1 *136:B2 2.44318e-05
18 *136:B1 *17:32 0.00042256
19 *15:25 *138:A 8.78006e-05
*RES
1 *142:X *17:6 13.9429 
2 *17:6 *17:12 10.9464 
3 *17:12 *138:A 15.1929 
4 *17:12 *132:A1 9.3 
5 *17:6 *17:32 5.39286 
6 *17:32 *134:A 9.3 
7 *17:32 *136:B2 9.83571 
*END

*D_NET *18 0.000868919
*CONN
*I *143:A I *D sky130_fd_sc_hd__buf_2
*I *133:X O *D sky130_fd_sc_hd__and2_1
*CAP
1 *143:A 0.000273814
2 *133:X 0.000273814
3 *133:B *143:A 5.71472e-05
4 *138:A *143:A 7.32955e-05
5 *15:25 *143:A 0.000190848
*RES
1 *133:X *143:A 24.9036 
*END

*D_NET *19 0.00123716
*CONN
*I *144:A I *D sky130_fd_sc_hd__buf_2
*I *137:X O *D sky130_fd_sc_hd__and2_1
*CAP
1 *144:A 0.000438651
2 *137:X 0.000438651
3 *144:A *146:A 0.000202891
4 P[1] *144:A 1.21955e-05
5 *135:A *144:A 0.000144773
*RES
1 *137:X *144:A 34.2964 
*END

*D_NET *20 0.00238356
*CONN
*I *145:A I *D sky130_fd_sc_hd__buf_2
*I *138:X O *D sky130_fd_sc_hd__and3_1
*CAP
1 *145:A 0.00119178
2 *138:X 0.00119178
*RES
1 *138:X *145:A 37.6536 
*END

*D_NET *21 0.00045141
*CONN
*I *146:A I *D sky130_fd_sc_hd__buf_2
*I *135:Y O *D sky130_fd_sc_hd__inv_2
*CAP
1 *146:A 0.00012426
2 *135:Y 0.00012426
3 *144:A *146:A 0.000202891
*RES
1 *135:Y *146:A 22.0107 
*END
