*SPEF "ieee 1481-1999"
*DESIGN "SARSANSTEPS_VENTAJA_e7"
*DATE "11:27:52 Friday September 12, 2025"
*VENDOR "The OpenROAD Project"
*PROGRAM "OpenROAD"
*VERSION "edf00dff99f6c40d67a30c0e22a8191c5d2ed9d6"
*DESIGN_FLOW "NAME_SCOPE LOCAL" "PIN_CAP NONE"
*DIVIDER /
*DELIMITER :
*BUS_DELIMITER []
*T_UNIT 1 NS
*C_UNIT 1 PF
*R_UNIT 1 OHM
*L_UNIT 1 HENRY

*NAME_MAP
*1 A[0]
*2 A[1]
*3 B[0]
*4 B[1]
*5 P[0]
*6 P[1]
*7 P[2]
*8 P[3]
*11 _00_
*12 _01_
*13 _02_
*14 _03_
*15 net1
*16 net2
*17 net3
*18 net4
*19 net5
*20 net6
*21 net7
*22 net8
*23 FILLER_0_15
*24 FILLER_0_27
*25 FILLER_0_29
*26 FILLER_0_3
*27 FILLER_0_41
*28 FILLER_0_49
*29 FILLER_0_57
*30 FILLER_0_69
*31 FILLER_1_15
*32 FILLER_1_27
*33 FILLER_1_3
*34 FILLER_1_39
*35 FILLER_1_52
*36 FILLER_1_57
*37 FILLER_1_69
*38 FILLER_2_15
*39 FILLER_2_27
*40 FILLER_2_29
*41 FILLER_2_3
*42 FILLER_2_41
*43 FILLER_2_53
*44 FILLER_2_65
*45 FILLER_2_77
*46 FILLER_3_15
*47 FILLER_3_27
*48 FILLER_3_3
*49 FILLER_3_39
*50 FILLER_3_51
*51 FILLER_3_55
*52 FILLER_3_57
*53 FILLER_3_69
*54 FILLER_4_15
*55 FILLER_4_27
*56 FILLER_4_29
*57 FILLER_4_3
*58 FILLER_4_41
*59 FILLER_4_53
*60 FILLER_4_65
*61 FILLER_4_77
*62 FILLER_5_13
*63 FILLER_5_21
*64 FILLER_5_30
*65 FILLER_5_42
*66 FILLER_5_55
*67 FILLER_5_57
*68 FILLER_5_68
*69 FILLER_5_80
*70 FILLER_6_18
*71 FILLER_6_36
*72 FILLER_6_48
*73 FILLER_6_59
*74 FILLER_6_6
*75 FILLER_6_71
*76 FILLER_7_19
*77 FILLER_7_31
*78 FILLER_7_43
*79 FILLER_7_55
*80 FILLER_7_57
*81 FILLER_7_69
*82 FILLER_7_7
*83 FILLER_7_77
*84 FILLER_8_15
*85 FILLER_8_27
*86 FILLER_8_29
*87 FILLER_8_3
*88 FILLER_8_41
*89 FILLER_8_50
*90 FILLER_8_62
*91 FILLER_8_74
*92 FILLER_8_80
*93 FILLER_9_15
*94 FILLER_9_27
*95 FILLER_9_29
*96 FILLER_9_3
*97 FILLER_9_41
*98 FILLER_9_49
*99 FILLER_9_57
*100 FILLER_9_69
*101 PHY_EDGE_ROW_0_Left_10
*102 PHY_EDGE_ROW_0_Right_0
*103 PHY_EDGE_ROW_1_Left_11
*104 PHY_EDGE_ROW_1_Right_1
*105 PHY_EDGE_ROW_2_Left_12
*106 PHY_EDGE_ROW_2_Right_2
*107 PHY_EDGE_ROW_3_Left_13
*108 PHY_EDGE_ROW_3_Right_3
*109 PHY_EDGE_ROW_4_Left_14
*110 PHY_EDGE_ROW_4_Right_4
*111 PHY_EDGE_ROW_5_Left_15
*112 PHY_EDGE_ROW_5_Right_5
*113 PHY_EDGE_ROW_6_Left_16
*114 PHY_EDGE_ROW_6_Right_6
*115 PHY_EDGE_ROW_7_Left_17
*116 PHY_EDGE_ROW_7_Right_7
*117 PHY_EDGE_ROW_8_Left_18
*118 PHY_EDGE_ROW_8_Right_8
*119 PHY_EDGE_ROW_9_Left_19
*120 PHY_EDGE_ROW_9_Right_9
*121 TAP_TAPCELL_ROW_0_20
*122 TAP_TAPCELL_ROW_0_21
*123 TAP_TAPCELL_ROW_1_22
*124 TAP_TAPCELL_ROW_2_23
*125 TAP_TAPCELL_ROW_3_24
*126 TAP_TAPCELL_ROW_4_25
*127 TAP_TAPCELL_ROW_5_26
*128 TAP_TAPCELL_ROW_6_27
*129 TAP_TAPCELL_ROW_7_28
*130 TAP_TAPCELL_ROW_8_29
*131 TAP_TAPCELL_ROW_9_30
*132 TAP_TAPCELL_ROW_9_31
*133 _04_
*134 _05_
*135 _06_
*136 _07_
*137 _08_
*138 _09_
*139 _10_
*140 _11_
*141 input1
*142 input2
*143 input3
*144 input4
*145 output5
*146 output6
*147 output7
*148 output8

*PORTS
A[0] I
A[1] I
B[0] I
B[1] I
P[0] O
P[1] O
P[2] O
P[3] O

*D_NET *1 0.000637803
*CONN
*P A[0] I
*I *141:A I *D sky130_fd_sc_hd__buf_1
*CAP
1 A[0] 0.000318901
2 *141:A 0.000318901
3 *141:A P[3] 0
*RES
1 A[0] *141:A 19.9443 
*END

*D_NET *2 0.000465235
*CONN
*P A[1] I
*I *142:A I *D sky130_fd_sc_hd__buf_1
*CAP
1 A[1] 0.000194309
2 *142:A 0.000194309
3 *142:A P[3] 7.66163e-05
*RES
1 A[1] *142:A 18.4264 
*END

*D_NET *3 0.000643286
*CONN
*P B[0] I
*I *143:A I *D sky130_fd_sc_hd__dlymetal6s2s_1
*CAP
1 B[0] 0.000307259
2 *143:A 0.000307259
3 *143:A *144:A 2.87684e-05
*RES
1 B[0] *143:A 21.0874 
*END

*D_NET *4 0.000531281
*CONN
*P B[1] I
*I *144:A I *D sky130_fd_sc_hd__buf_1
*CAP
1 B[1] 0.000235287
2 *144:A 0.000235287
3 *144:A P[1] 3.19385e-05
4 *143:A *144:A 2.87684e-05
*RES
1 B[1] *144:A 18.73 
*END

*D_NET *5 0.000950737
*CONN
*P P[0] O
*I *145:X O *D sky130_fd_sc_hd__buf_2
*CAP
1 P[0] 0.000475368
2 *145:X 0.000475368
*RES
1 *145:X P[0] 22.05 
*END

*D_NET *6 0.00072306
*CONN
*P P[1] O
*I *146:X O *D sky130_fd_sc_hd__buf_2
*CAP
1 P[1] 0.000345561
2 *146:X 0.000345561
3 *144:A P[1] 3.19385e-05
*RES
1 *146:X P[1] 20.891 
*END

*D_NET *7 0.000951893
*CONN
*P P[2] O
*I *147:X O *D sky130_fd_sc_hd__buf_2
*CAP
1 P[2] 0.000475946
2 *147:X 0.000475946
*RES
1 *147:X P[2] 23.2643 
*END

*D_NET *8 0.000494854
*CONN
*P P[3] O
*I *148:X O *D sky130_fd_sc_hd__buf_2
*CAP
1 P[3] 0.000203021
2 *148:X 0.000203021
3 P[3] *148:A 1.21955e-05
4 *141:A P[3] 0
5 *142:A P[3] 7.66163e-05
*RES
1 *148:X P[3] 18.1949 
*END

*D_NET *11 0.00109342
*CONN
*I *138:B1 I *D sky130_fd_sc_hd__o31a_1
*I *134:X O *D sky130_fd_sc_hd__mux2_1
*CAP
1 *138:B1 0.000451297
2 *134:X 0.000451297
3 *138:B1 *138:A1 4.57445e-05
4 *138:B1 *17:17 0.000145085
*RES
1 *134:X *138:B1 34.2964 
*END

*D_NET *12 0.00036425
*CONN
*I *138:A1 I *D sky130_fd_sc_hd__o31a_1
*I *135:X O *D sky130_fd_sc_hd__and2b_1
*CAP
1 *138:A1 0.000143981
2 *135:X 0.000143981
3 *138:A1 *135:A_N 0
4 *138:A1 *17:17 3.05446e-05
5 *138:B1 *138:A1 4.57445e-05
*RES
1 *135:X *138:A1 30.1893 
*END

*D_NET *13 0.00173323
*CONN
*I *138:A2 I *D sky130_fd_sc_hd__o31a_1
*I *139:A1 I *D sky130_fd_sc_hd__o211a_1
*I *136:X O *D sky130_fd_sc_hd__and2b_1
*CAP
1 *138:A2 0
2 *139:A1 0.000552463
3 *136:X 9.85104e-05
4 *13:6 0.000650973
5 *139:A1 *146:A 5.5782e-05
6 *139:A1 *147:A 0.000143375
7 *13:6 *18:25 0.000232123
*RES
1 *136:X *13:6 11.4786 
2 *13:6 *139:A1 28.1393 
3 *13:6 *138:A2 9.3 
*END

*D_NET *14 0.0026254
*CONN
*I *139:A2 I *D sky130_fd_sc_hd__o211a_1
*I *138:A3 I *D sky130_fd_sc_hd__o31a_1
*I *137:Y O *D sky130_fd_sc_hd__nand2_1
*CAP
1 *139:A2 0.000153593
2 *138:A3 0.00040345
3 *137:Y 0.000350618
4 *14:6 0.000907661
5 *138:A3 *18:8 0
6 *138:A3 *18:25 0.000316877
7 *139:A2 *139:B1 0.000322453
8 *14:6 *137:A 0.000136028
9 *14:6 *137:B 1.32552e-05
10 *14:6 *18:25 2.14658e-05
*RES
1 *137:Y *14:6 13.9429 
2 *14:6 *138:A3 15.1929 
3 *14:6 *139:A2 22.3714 
*END

*D_NET *15 0.00520021
*CONN
*I *140:B I *D sky130_fd_sc_hd__and4_1
*I *134:A0 I *D sky130_fd_sc_hd__mux2_1
*I *137:A I *D sky130_fd_sc_hd__nand2_1
*I *133:B I *D sky130_fd_sc_hd__xnor2_1
*I *141:X O *D sky130_fd_sc_hd__buf_1
*CAP
1 *140:B 1.88267e-05
2 *134:A0 0
3 *137:A 0.000152066
4 *133:B 0.000386929
5 *141:X 0.0006903
6 *15:18 0.000558911
7 *15:14 0.000105856
8 *15:12 0.000795066
9 *133:B *133:A 0.000735945
10 *137:A *137:B 0.000318107
11 *137:A *139:C1 2.31791e-05
12 *137:A *140:C 0.000153054
13 *137:A *16:20 0.000104974
14 *140:B *140:C 5.52302e-05
15 *15:14 *140:A 0.000227322
16 *15:14 *140:C 0.000537165
17 *15:14 *17:30 4.88637e-05
18 *15:18 *140:C 9.90431e-05
19 *15:18 *17:30 5.33433e-05
20 *14:6 *137:A 0.000136028
*RES
1 *141:X *15:12 26.9429 
2 *15:12 *15:14 5.05357 
3 *15:14 *15:18 5.44643 
4 *15:18 *133:B 23.9429 
5 *15:18 *137:A 19.4607 
6 *15:14 *134:A0 9.3 
7 *15:12 *140:B 9.83571 
*END

*D_NET *16 0.00480267
*CONN
*I *140:D I *D sky130_fd_sc_hd__and4_1
*I *134:A1 I *D sky130_fd_sc_hd__mux2_1
*I *139:C1 I *D sky130_fd_sc_hd__o211a_1
*I *137:B I *D sky130_fd_sc_hd__nand2_1
*I *142:X O *D sky130_fd_sc_hd__buf_1
*CAP
1 *140:D 9.76096e-05
2 *134:A1 0
3 *139:C1 0.00022182
4 *137:B 0.000206622
5 *142:X 0.000780626
6 *16:20 0.000549647
7 *16:14 0.000424367
8 *16:12 0.0011814
9 *139:C1 *139:B1 0.000198738
10 *139:C1 *140:C 1.17968e-05
11 *140:D *140:C 8.76257e-05
12 *16:14 *140:C 0.000481941
13 *16:20 *140:C 0.00010096
14 *137:A *137:B 0.000318107
15 *137:A *139:C1 2.31791e-05
16 *137:A *16:20 0.000104974
17 *14:6 *137:B 1.32552e-05
*RES
1 *142:X *16:12 28.4607 
2 *16:12 *16:14 4.64286 
3 *16:14 *16:20 6.78571 
4 *16:20 *137:B 18.05 
5 *16:20 *139:C1 19.0857 
6 *16:14 *134:A1 9.3 
7 *16:12 *140:D 10.6571 
*END

*D_NET *17 0.00490761
*CONN
*I *136:A_N I *D sky130_fd_sc_hd__and2b_1
*I *140:A I *D sky130_fd_sc_hd__and4_1
*I *134:S I *D sky130_fd_sc_hd__mux2_1
*I *133:A I *D sky130_fd_sc_hd__xnor2_1
*I *135:B I *D sky130_fd_sc_hd__and2b_1
*I *143:X O *D sky130_fd_sc_hd__dlymetal6s2s_1
*CAP
1 *136:A_N 9.30503e-05
2 *140:A 0.000173425
3 *134:S 2.23854e-05
4 *133:A 0.000335943
5 *135:B 0
6 *143:X 0.000397508
7 *17:30 0.00030824
8 *17:17 0.000926952
9 *17:10 0.000655706
10 *17:6 0.000667685
11 *136:A_N *135:A_N 6.97972e-05
12 *17:17 *140:C 3.69047e-06
13 *17:30 *140:C 1.21258e-05
14 *133:B *133:A 0.000735945
15 *138:A1 *17:17 3.05446e-05
16 *138:B1 *17:17 0.000145085
17 *15:14 *140:A 0.000227322
18 *15:14 *17:30 4.88637e-05
19 *15:18 *17:30 5.33433e-05
*RES
1 *143:X *17:6 15.9964 
2 *17:6 *17:10 2.91071 
3 *17:10 *135:B 9.3 
4 *17:10 *17:17 8.33929 
5 *17:17 *133:A 27.5321 
6 *17:17 *17:30 2.17857 
7 *17:30 *134:S 9.72857 
8 *17:30 *140:A 13.1214 
9 *17:6 *136:A_N 20.2464 
*END

*D_NET *18 0.00557269
*CONN
*I *136:B I *D sky130_fd_sc_hd__and2b_1
*I *139:B1 I *D sky130_fd_sc_hd__o211a_1
*I *140:C I *D sky130_fd_sc_hd__and4_1
*I *135:A_N I *D sky130_fd_sc_hd__and2b_1
*I *144:X O *D sky130_fd_sc_hd__buf_1
*CAP
1 *136:B 0
2 *139:B1 0.000118499
3 *140:C 0.000236624
4 *135:A_N 0.000139555
5 *144:X 0.000550259
6 *18:25 0.000722101
7 *18:8 0.000528918
8 *18:6 0.000572644
9 *136:A_N *135:A_N 6.97972e-05
10 *137:A *140:C 0.000153054
11 *138:A1 *135:A_N 0
12 *138:A3 *18:8 0
13 *138:A3 *18:25 0.000316877
14 *139:A2 *139:B1 0.000322453
15 *139:C1 *139:B1 0.000198738
16 *139:C1 *140:C 1.17968e-05
17 *140:B *140:C 5.52302e-05
18 *140:D *140:C 8.76257e-05
19 *13:6 *18:25 0.000232123
20 *14:6 *18:25 2.14658e-05
21 *15:14 *140:C 0.000537165
22 *15:18 *140:C 9.90431e-05
23 *16:14 *140:C 0.000481941
24 *16:20 *140:C 0.00010096
25 *17:17 *140:C 3.69047e-06
26 *17:30 *140:C 1.21258e-05
*RES
1 *144:X *18:6 18.05 
2 *18:6 *18:8 0.428571 
3 *18:8 *135:A_N 21.4964 
4 *18:8 *18:25 13.25 
5 *18:25 *140:C 23.1571 
6 *18:25 *139:B1 18.4786 
7 *18:6 *136:B 9.3 
*END

*D_NET *19 0.000335107
*CONN
*I *145:A I *D sky130_fd_sc_hd__buf_2
*I *133:Y O *D sky130_fd_sc_hd__xnor2_1
*CAP
1 *145:A 0.000167553
2 *133:Y 0.000167553
*RES
1 *133:Y *145:A 30.3857 
*END

*D_NET *20 0.00138117
*CONN
*I *146:A I *D sky130_fd_sc_hd__buf_2
*I *138:X O *D sky130_fd_sc_hd__o31a_1
*CAP
1 *146:A 0.000662696
2 *138:X 0.000662696
3 *139:A1 *146:A 5.5782e-05
*RES
1 *138:X *146:A 39.1179 
*END

*D_NET *21 0.000906466
*CONN
*I *147:A I *D sky130_fd_sc_hd__buf_2
*I *139:X O *D sky130_fd_sc_hd__o211a_1
*CAP
1 *147:A 0.000381546
2 *139:X 0.000381546
3 *139:A1 *147:A 0.000143375
*RES
1 *139:X *147:A 34.3857 
*END

*D_NET *22 0.000924804
*CONN
*I *148:A I *D sky130_fd_sc_hd__buf_2
*I *140:X O *D sky130_fd_sc_hd__and4_1
*CAP
1 *148:A 0.000456304
2 *140:X 0.000456304
3 P[3] *148:A 1.21955e-05
*RES
1 *140:X *148:A 33.475 
*END
