*SPEF "ieee 1481-1999"
*DESIGN "mult4_SARSA_RUIDO_e9_SARSA_RUIDO_e9_SarsaNStepsRuido_e9_SARSA_RUIDO_e9"
*DATE "18:37:48 Tuesday September 16, 2025"
*VENDOR "The OpenROAD Project"
*PROGRAM "OpenROAD"
*VERSION "edf00dff99f6c40d67a30c0e22a8191c5d2ed9d6"
*DESIGN_FLOW "NAME_SCOPE LOCAL" "PIN_CAP NONE"
*DIVIDER /
*DELIMITER :
*BUS_DELIMITER []
*T_UNIT 1 NS
*C_UNIT 1 PF
*R_UNIT 1 OHM
*L_UNIT 1 HENRY

*NAME_MAP
*1 A[0]
*2 A[1]
*3 A[2]
*4 A[3]
*5 B[0]
*6 B[1]
*7 B[2]
*8 B[3]
*9 P[0]
*10 P[1]
*11 P[2]
*12 P[3]
*13 P[4]
*14 P[5]
*15 P[6]
*16 P[7]
*19 _00_
*20 _01_
*21 _02_
*22 _03_
*23 _04_
*24 _05_
*25 _06_
*26 _07_
*27 _08_
*28 _09_
*29 _10_
*30 _11_
*31 _12_
*32 _13_
*33 _14_
*34 _15_
*35 _16_
*36 _17_
*37 _18_
*38 _19_
*39 _20_
*40 _21_
*41 _22_
*42 _23_
*43 _24_
*44 _25_
*45 _26_
*46 _27_
*47 _28_
*48 _29_
*49 _30_
*50 _31_
*51 _32_
*52 _33_
*53 _34_
*54 _35_
*55 _36_
*56 _37_
*57 _38_
*58 _39_
*59 _40_
*60 _41_
*61 _42_
*62 _43_
*63 _44_
*64 _45_
*65 net1
*66 net10
*67 net11
*68 net12
*69 net13
*70 net14
*71 net15
*72 net16
*73 net2
*74 net3
*75 net4
*76 net5
*77 net6
*78 net7
*79 net8
*80 net9
*81 FILLER_0_13
*82 FILLER_0_21
*83 FILLER_0_36
*84 FILLER_0_44
*85 FILLER_0_49
*86 FILLER_0_55
*87 FILLER_0_57
*88 FILLER_0_69
*89 FILLER_1_13
*90 FILLER_1_37
*91 FILLER_1_49
*92 FILLER_1_57
*93 FILLER_1_68
*94 FILLER_1_74
*95 FILLER_2_14
*96 FILLER_2_23
*97 FILLER_2_27
*98 FILLER_2_29
*99 FILLER_2_40
*100 FILLER_2_52
*101 FILLER_2_60
*102 FILLER_2_66
*103 FILLER_2_75
*104 FILLER_3_10
*105 FILLER_3_16
*106 FILLER_3_22
*107 FILLER_3_26
*108 FILLER_3_53
*109 FILLER_3_57
*110 FILLER_3_70
*111 FILLER_3_78
*112 FILLER_4_21
*113 FILLER_4_27
*114 FILLER_4_29
*115 FILLER_4_45
*116 FILLER_4_57
*117 FILLER_4_71
*118 FILLER_4_79
*119 FILLER_4_9
*120 FILLER_5_21
*121 FILLER_5_3
*122 FILLER_5_44
*123 FILLER_5_57
*124 FILLER_5_69
*125 FILLER_6_15
*126 FILLER_6_26
*127 FILLER_6_29
*128 FILLER_6_3
*129 FILLER_6_71
*130 FILLER_6_79
*131 FILLER_7_20
*132 FILLER_7_38
*133 FILLER_7_49
*134 FILLER_7_55
*135 FILLER_7_57
*136 FILLER_7_69
*137 FILLER_8_23
*138 FILLER_8_27
*139 FILLER_8_29
*140 FILLER_8_3
*141 FILLER_8_37
*142 FILLER_8_45
*143 FILLER_8_53
*144 FILLER_8_74
*145 FILLER_8_80
*146 FILLER_9_18
*147 FILLER_9_26
*148 FILLER_9_29
*149 FILLER_9_41
*150 FILLER_9_54
*151 FILLER_9_57
*152 FILLER_9_69
*153 FILLER_9_7
*154 PHY_EDGE_ROW_0_Left_10
*155 PHY_EDGE_ROW_0_Right_0
*156 PHY_EDGE_ROW_1_Left_11
*157 PHY_EDGE_ROW_1_Right_1
*158 PHY_EDGE_ROW_2_Left_12
*159 PHY_EDGE_ROW_2_Right_2
*160 PHY_EDGE_ROW_3_Left_13
*161 PHY_EDGE_ROW_3_Right_3
*162 PHY_EDGE_ROW_4_Left_14
*163 PHY_EDGE_ROW_4_Right_4
*164 PHY_EDGE_ROW_5_Left_15
*165 PHY_EDGE_ROW_5_Right_5
*166 PHY_EDGE_ROW_6_Left_16
*167 PHY_EDGE_ROW_6_Right_6
*168 PHY_EDGE_ROW_7_Left_17
*169 PHY_EDGE_ROW_7_Right_7
*170 PHY_EDGE_ROW_8_Left_18
*171 PHY_EDGE_ROW_8_Right_8
*172 PHY_EDGE_ROW_9_Left_19
*173 PHY_EDGE_ROW_9_Right_9
*174 TAP_TAPCELL_ROW_0_20
*175 TAP_TAPCELL_ROW_0_21
*176 TAP_TAPCELL_ROW_1_22
*177 TAP_TAPCELL_ROW_2_23
*178 TAP_TAPCELL_ROW_3_24
*179 TAP_TAPCELL_ROW_4_25
*180 TAP_TAPCELL_ROW_5_26
*181 TAP_TAPCELL_ROW_6_27
*182 TAP_TAPCELL_ROW_7_28
*183 TAP_TAPCELL_ROW_8_29
*184 TAP_TAPCELL_ROW_9_30
*185 TAP_TAPCELL_ROW_9_31
*186 _46_
*187 _47_
*188 _48_
*189 _49_
*190 _50_
*191 _51_
*192 _52_
*193 _53_
*194 _54_
*195 _55_
*196 _56_
*197 _57_
*198 _58_
*199 _59_
*200 _60_
*201 _61_
*202 _62_
*203 _63_
*204 _64_
*205 _65_
*206 _66_
*207 _67_
*208 _68_
*209 _69_
*210 _70_
*211 _71_
*212 _72_
*213 _73_
*214 _74_
*215 _75_
*216 _76_
*217 _77_
*218 _78_
*219 _79_
*220 _80_
*221 _81_
*222 _82_
*223 _83_
*224 _84_
*225 _85_
*226 _86_
*227 _87_
*228 _88_
*229 _89_
*230 _90_
*231 _91_
*232 _92_
*233 _93_
*234 _94_
*235 _95_
*236 _96_
*237 _97_
*238 _98_
*239 _99_
*240 input1
*241 input2
*242 input3
*243 input4
*244 input5
*245 input6
*246 input7
*247 input8
*248 output10
*249 output11
*250 output12
*251 output13
*252 output14
*253 output15
*254 output16
*255 output9

*PORTS
A[0] I
A[1] I
A[2] I
A[3] I
B[0] I
B[1] I
B[2] I
B[3] I
P[0] O
P[1] O
P[2] O
P[3] O
P[4] O
P[5] O
P[6] O
P[7] O

*D_NET *1 0.000690337
*CONN
*P A[0] I
*I *240:A I *D sky130_fd_sc_hd__dlymetal6s2s_1
*CAP
1 A[0] 0.000332102
2 *240:A 0
3 *1:17 0.000332102
4 *1:17 *245:A 2.61329e-05
*RES
1 A[0] *1:17 27.5105 
2 *1:17 *240:A 23 
*END

*D_NET *2 0.000782387
*CONN
*P A[1] I
*I *241:A I *D sky130_fd_sc_hd__buf_1
*CAP
1 A[1] 0.000250492
2 *241:A 0
3 *2:17 0.000250492
4 *2:17 *246:A 2.12457e-05
5 *2:17 *5:15 0.000260156
6 *2:17 *77:73 0
*RES
1 A[1] *2:17 27.1584 
2 *2:17 *241:A 23 
*END

*D_NET *3 0.000676914
*CONN
*P A[2] I
*I *242:A I *D sky130_fd_sc_hd__clkbuf_2
*CAP
1 A[2] 0.000322833
2 *242:A 0
3 *3:17 0.000322833
4 *3:17 *8:11 3.12475e-05
*RES
1 A[2] *3:17 27.2827 
2 *3:17 *242:A 23 
*END

*D_NET *4 0.000618748
*CONN
*P A[3] I
*I *243:A I *D sky130_fd_sc_hd__dlymetal6s2s_1
*CAP
1 A[3] 0.000284795
2 *243:A 0.000284795
3 *243:A *246:A 2.12457e-05
4 *243:A *8:11 2.79122e-05
*RES
1 A[3] *243:A 49.8062 
*END

*D_NET *5 0.00107613
*CONN
*P B[0] I
*I *244:A I *D sky130_fd_sc_hd__buf_1
*CAP
1 B[0] 0.000390513
2 *244:A 0
3 *5:15 0.000390513
4 *5:15 P[1] 3.49463e-05
5 *5:15 *246:A 0
6 *5:15 *73:8 0
7 *5:15 *77:73 0
8 *2:17 *5:15 0.000260156
*RES
1 B[0] *5:15 29.8639 
2 *5:15 *244:A 23 
*END

*D_NET *6 0.000631712
*CONN
*P B[1] I
*I *245:A I *D sky130_fd_sc_hd__dlymetal6s2s_1
*CAP
1 B[1] 0.000288833
2 *245:A 0.000288833
3 *245:A P[1] 2.79122e-05
4 *1:17 *245:A 2.61329e-05
*RES
1 B[1] *245:A 49.8062 
*END

*D_NET *7 0.00130577
*CONN
*P B[2] I
*I *246:A I *D sky130_fd_sc_hd__buf_1
*CAP
1 B[2] 0.000609295
2 *246:A 0.000609295
3 *246:A *8:11 0
4 *246:A *35:10 0
5 *246:A *74:57 2.05503e-05
6 *246:A *78:8 2.4137e-05
7 *243:A *246:A 2.12457e-05
8 *2:17 *246:A 2.12457e-05
9 *5:15 *246:A 0
*RES
1 B[2] *246:A 48.556 
*END

*D_NET *8 0.00176755
*CONN
*P B[3] I
*I *247:A I *D sky130_fd_sc_hd__clkbuf_2
*CAP
1 B[3] 0.000716028
2 *247:A 0
3 *8:11 0.000716028
4 *8:11 *51:10 0
5 *8:11 *74:10 0.000152446
6 *8:11 *79:8 0.000123889
7 *243:A *8:11 2.79122e-05
8 *246:A *8:11 0
9 *3:17 *8:11 3.12475e-05
*RES
1 B[3] *8:11 27.5743 
2 *8:11 *247:A 23 
*END

*D_NET *9 0.000956706
*CONN
*P P[0] O
*I *255:X O *D sky130_fd_sc_hd__buf_2
*CAP
1 P[0] 0.000451284
2 *255:X 0.000451284
3 P[0] *80:6 5.41385e-05
*RES
1 *255:X P[0] 47.0936 
*END

*D_NET *10 0.00134603
*CONN
*P P[1] O
*I *248:X O *D sky130_fd_sc_hd__buf_2
*CAP
1 P[1] 0.000107118
2 *248:X 0.000333517
3 *10:10 0.000440636
4 *10:10 *189:A_N 0.000401899
5 *10:10 *77:73 0
6 *245:A P[1] 2.79122e-05
7 *5:15 P[1] 3.49463e-05
*RES
1 *248:X *10:10 44.8875 
2 *10:10 P[1] 8.50027 
*END

*D_NET *11 0.000995749
*CONN
*P P[2] O
*I *249:X O *D sky130_fd_sc_hd__buf_2
*CAP
1 P[2] 0.000494787
2 *249:X 0.000494787
3 P[2] *67:8 6.17437e-06
*RES
1 *249:X P[2] 47.86 
*END

*D_NET *12 0.000531345
*CONN
*P P[3] O
*I *250:X O *D sky130_fd_sc_hd__buf_2
*CAP
1 P[3] 0.000226083
2 *250:X 0.000226083
3 P[3] P[4] 7.91783e-05
*RES
1 *250:X P[3] 47.1648 
*END

*D_NET *13 0.000546237
*CONN
*P P[4] O
*I *251:X O *D sky130_fd_sc_hd__buf_2
*CAP
1 P[4] 0.000233529
2 *251:X 0.000233529
3 P[4] P[5] 0
4 P[4] *47:12 0
5 P[3] P[4] 7.91783e-05
*RES
1 *251:X P[4] 47.5169 
*END

*D_NET *14 0.000599998
*CONN
*P P[5] O
*I *252:X O *D sky130_fd_sc_hd__buf_2
*CAP
1 P[5] 0.000299999
2 *252:X 0.000299999
3 P[5] *57:10 0
4 P[4] P[5] 0
*RES
1 *252:X P[5] 47.8691 
*END

*D_NET *15 0.000688002
*CONN
*P P[6] O
*I *253:X O *D sky130_fd_sc_hd__buf_2
*CAP
1 P[6] 0.000323569
2 *253:X 0.000323569
3 P[6] *235:A 0
4 P[6] *71:10 4.08641e-05
*RES
1 *253:X P[6] 48.5734 
*END

*D_NET *16 0.0014564
*CONN
*P P[7] O
*I *254:X O *D sky130_fd_sc_hd__buf_2
*CAP
1 P[7] 0.00050823
2 *254:X 0.000163438
3 *16:8 0.000671668
4 *16:8 *237:B1 4.5707e-05
5 *16:8 *254:A 3.22879e-05
6 *16:8 *60:8 1.32314e-05
7 *16:8 *60:25 2.18409e-05
*RES
1 *254:X *16:8 40.5271 
2 *16:8 P[7] 10.9786 
*END

*D_NET *19 0.0014937
*CONN
*I *190:B I *D sky130_fd_sc_hd__nor2_1
*I *192:B I *D sky130_fd_sc_hd__or3_1
*I *187:Y O *D sky130_fd_sc_hd__nand2_1
*CAP
1 *190:B 0.00013484
2 *192:B 0.000112161
3 *187:Y 0.000192627
4 *19:10 0.000439628
5 *190:B *188:B 0
6 *190:B *190:A 0.000187976
7 *190:B *192:C 1.24376e-05
8 *190:B *23:10 6.19585e-05
9 *190:B *38:14 8.48502e-06
10 *192:B *194:B 8.94487e-05
11 *192:B *22:10 6.25829e-05
12 *192:B *38:14 0
13 *192:B *80:21 6.38845e-05
14 *19:10 *22:10 7.39034e-05
15 *19:10 *37:6 2.43944e-05
16 *19:10 *38:14 0
17 *19:10 *77:27 7.53384e-06
18 *19:10 *77:36 2.18409e-05
*RES
1 *187:Y *19:10 40.7757 
2 *19:10 *192:B 39.9057 
3 *19:10 *190:B 41.6664 
*END

*D_NET *20 0.00313053
*CONN
*I *208:B1 I *D sky130_fd_sc_hd__a31o_1
*I *207:C I *D sky130_fd_sc_hd__and4_1
*I *189:A_N I *D sky130_fd_sc_hd__and3b_1
*I *188:X O *D sky130_fd_sc_hd__and4_1
*CAP
1 *208:B1 7.08635e-05
2 *207:C 8.14103e-05
3 *189:A_N 0.000205003
4 *188:X 0.00038779
5 *20:14 0.000390981
6 *20:6 0.000563222
7 *189:A_N *207:A 5.3304e-05
8 *189:A_N *66:10 0.000228001
9 *189:A_N *77:27 0.00013497
10 *207:C *207:A 4.08664e-05
11 *207:C *77:27 2.32101e-05
12 *208:B1 *79:58 4.69885e-05
13 *208:B1 *79:75 1.31207e-05
14 *20:6 *188:A 9.24795e-06
15 *20:6 *188:B 4.57742e-05
16 *20:6 *192:C 6.17437e-06
17 *20:6 *208:A3 1.40958e-05
18 *20:6 *38:14 5.73632e-05
19 *20:6 *79:58 2.38641e-06
20 *20:6 *79:75 2.93845e-05
21 *20:14 *65:34 0.000136486
22 *20:14 *65:47 2.46345e-05
23 *20:14 *76:14 0.000163352
24 *10:10 *189:A_N 0.000401899
*RES
1 *188:X *20:6 28.1475 
2 *20:6 *20:14 32.6411 
3 *20:14 *189:A_N 29.815 
4 *20:14 *207:C 24.595 
5 *20:6 *208:B1 24.8539 
*END

*D_NET *21 0.00118301
*CONN
*I *194:A I *D sky130_fd_sc_hd__xnor2_1
*I *190:Y O *D sky130_fd_sc_hd__nor2_1
*CAP
1 *194:A 0.000182077
2 *190:Y 0.00027054
3 *21:10 0.000452617
4 *194:A *194:B 1.14154e-05
5 *194:A *67:8 0.000146195
6 *21:10 *23:10 1.89371e-05
7 *21:10 *38:14 0.000101226
8 *21:10 *80:21 0
*RES
1 *190:Y *21:10 41.9564 
2 *21:10 *194:A 41.9771 
*END

*D_NET *22 0.00399399
*CONN
*I *197:C I *D sky130_fd_sc_hd__and3_1
*I *202:C_N I *D sky130_fd_sc_hd__or3b_1
*I *192:C I *D sky130_fd_sc_hd__or3_1
*I *194:B I *D sky130_fd_sc_hd__xnor2_1
*I *191:Y O *D sky130_fd_sc_hd__nand2_1
*CAP
1 *197:C 0.000224931
2 *202:C_N 4.59204e-05
3 *192:C 3.6623e-05
4 *194:B 0.000288218
5 *191:Y 0.000137914
6 *22:42 0.00058441
7 *22:10 0.000514522
8 *22:6 0.000641153
9 *192:C *38:14 2.64616e-05
10 *194:B *188:B 3.70187e-05
11 *194:B *65:23 0
12 *194:B *80:6 7.53384e-06
13 *194:B *80:21 9.26172e-05
14 *197:C *197:A 0.000256865
15 *197:C *32:10 5.50049e-05
16 *202:C_N *196:A 1.12349e-05
17 *202:C_N *197:A 3.64754e-05
18 *202:C_N *202:A 5.42932e-05
19 *202:C_N *42:18 1.2153e-05
20 *22:6 *65:80 5.3304e-05
21 *22:6 *73:56 2.94414e-05
22 *22:10 *188:B 0.000179702
23 *22:10 *38:14 0
24 *22:10 *77:55 0.000192087
25 *22:42 *42:18 0.000167927
26 *22:42 *73:56 5.22171e-05
27 *22:42 *77:55 0
28 *190:B *192:C 1.24376e-05
29 *192:B *194:B 8.94487e-05
30 *192:B *22:10 6.25829e-05
31 *194:A *194:B 1.14154e-05
32 *19:10 *22:10 7.39034e-05
33 *20:6 *192:C 6.17437e-06
*RES
1 *191:Y *22:6 25.0507 
2 *22:6 *22:10 20.075 
3 *22:10 *194:B 43.4479 
4 *22:10 *192:C 38.6214 
5 *22:6 *22:42 21.1418 
6 *22:42 *202:C_N 39.2532 
7 *22:42 *197:C 42.2568 
*END

*D_NET *23 0.00132351
*CONN
*I *193:A I *D sky130_fd_sc_hd__inv_2
*I *192:X O *D sky130_fd_sc_hd__or3_1
*CAP
1 *193:A 0
2 *192:X 0.000598054
3 *23:10 0.000598054
4 *23:10 *190:A 4.65096e-05
5 *190:B *23:10 6.19585e-05
6 *21:10 *23:10 1.89371e-05
*RES
1 *192:X *23:10 33.6679 
2 *23:10 *193:A 23 
*END

*D_NET *24 0.00141439
*CONN
*I *238:A I *D sky130_fd_sc_hd__or2_1
*I *228:A1 I *D sky130_fd_sc_hd__a31o_1
*I *217:A I *D sky130_fd_sc_hd__nand2_1
*I *193:Y O *D sky130_fd_sc_hd__inv_2
*CAP
1 *238:A 0
2 *228:A1 7.96069e-05
3 *217:A 0
4 *193:Y 0.000323326
5 *24:10 0.000175035
6 *24:6 0.000418755
7 *228:A1 *218:A 0.000221193
8 *228:A1 *46:10 9.3813e-05
9 *24:10 *218:A 1.14452e-05
10 *24:10 *238:B 8.51432e-05
11 *24:10 *46:10 6.07611e-06
12 *24:10 *47:12 0
*RES
1 *193:Y *24:6 28.3857 
2 *24:6 *24:10 17.2579 
3 *24:10 *217:A 38 
4 *24:10 *228:A1 40.9621 
5 *24:6 *238:A 23 
*END

*D_NET *25 0.00349321
*CONN
*I *224:A1 I *D sky130_fd_sc_hd__o21a_1
*I *204:A I *D sky130_fd_sc_hd__xor2_1
*I *225:A1 I *D sky130_fd_sc_hd__o211a_1
*I *231:C I *D sky130_fd_sc_hd__and3_1
*I *195:Y O *D sky130_fd_sc_hd__nand2_1
*CAP
1 *224:A1 0
2 *204:A 7.08836e-05
3 *225:A1 0
4 *231:C 2.07857e-05
5 *195:Y 0.000273576
6 *25:37 0.000488832
7 *25:25 0.000765091
8 *25:10 0.000641505
9 *204:A *204:B 0.000230604
10 *204:A *54:8 0.000143655
11 *25:10 *231:A 0.000141215
12 *25:10 *48:8 0.000113903
13 *25:10 *48:21 0.000231376
14 *25:10 *75:84 2.94787e-05
15 *25:37 *204:B 1.72202e-05
16 *25:37 *225:A2 1.14154e-05
17 *25:37 *225:B1 3.22879e-05
18 *25:37 *225:C1 6.96918e-05
19 *25:37 *32:10 3.64246e-05
20 *25:37 *32:16 0.000143163
21 *25:37 *33:10 0
22 *25:37 *33:21 3.20983e-05
*RES
1 *195:Y *25:10 29.38 
2 *25:10 *231:C 23.725 
3 *25:10 *25:25 20.9657 
4 *25:25 *25:37 22.25 
5 *25:37 *225:A1 23 
6 *25:37 *204:A 26.0036 
7 *25:25 *224:A1 38 
*END

*D_NET *26 0.000516378
*CONN
*I *202:A I *D sky130_fd_sc_hd__or3b_1
*I *196:Y O *D sky130_fd_sc_hd__nand2_1
*CAP
1 *202:A 7.64866e-05
2 *196:Y 7.64866e-05
3 *202:A *197:A 7.76124e-05
4 *202:A *197:B 0.000231499
5 *202:C_N *202:A 5.42932e-05
*RES
1 *196:Y *202:A 48.5271 
*END

*D_NET *27 0.00058227
*CONN
*I *203:A I *D sky130_fd_sc_hd__xor2_1
*I *197:X O *D sky130_fd_sc_hd__and3_1
*CAP
1 *203:A 0
2 *197:X 0.000108972
3 *27:10 0.000108972
4 *27:10 *197:B 5.50049e-05
5 *27:10 *31:16 0.000139647
6 *27:10 *32:10 0.000169674
7 *27:10 *79:40 0
*RES
1 *197:X *27:10 40.8793 
2 *27:10 *203:A 38 
*END

*D_NET *28 0.000425755
*CONN
*I *201:S I *D sky130_fd_sc_hd__mux2_1
*I *198:X O *D sky130_fd_sc_hd__and3_1
*CAP
1 *201:S 0
2 *198:X 0.000190623
3 *28:10 0.000190623
4 *28:10 *210:B1 0
5 *28:10 *75:84 5.26733e-06
6 *28:10 *77:55 3.92407e-05
7 *28:10 *79:40 0
*RES
1 *198:X *28:10 40.8793 
2 *28:10 *201:S 38 
*END

*D_NET *29 0.00131317
*CONN
*I *232:A1 I *D sky130_fd_sc_hd__a21o_1
*I *221:A I *D sky130_fd_sc_hd__xnor2_1
*I *199:X O *D sky130_fd_sc_hd__and4_1
*CAP
1 *232:A1 0
2 *221:A 4.70839e-05
3 *199:X 0.000169662
4 *29:25 0.0001074
5 *29:12 0.000221538
6 *29:8 0.000236716
7 *29:8 *219:A 0
8 *29:8 *35:10 0.000118004
9 *29:8 *74:29 0
10 *29:8 *78:8 4.21594e-06
11 *29:8 *78:47 6.46393e-05
12 *29:12 *51:10 3.7122e-06
13 *29:25 *219:A 0
14 *29:25 *232:A2 0.000220618
15 *29:25 *35:10 3.54739e-05
16 *29:25 *51:10 8.41115e-05
17 *29:25 *74:10 0
*RES
1 *199:X *29:8 42.7229 
2 *29:8 *29:12 16.0979 
3 *29:12 *221:A 23.6214 
4 *29:12 *29:25 33.3143 
5 *29:25 *232:A1 23 
*END

*D_NET *30 0.000546091
*CONN
*I *201:A0 I *D sky130_fd_sc_hd__mux2_1
*I *200:Y O *D sky130_fd_sc_hd__nand2_1
*CAP
1 *201:A0 0.000157774
2 *200:Y 0.000157774
3 *201:A0 *200:B 0.000230543
*RES
1 *200:Y *201:A0 48.5271 
*END

*D_NET *31 0.000895206
*CONN
*I *203:B I *D sky130_fd_sc_hd__xor2_1
*I *202:B I *D sky130_fd_sc_hd__or3b_1
*I *201:X O *D sky130_fd_sc_hd__mux2_1
*CAP
1 *203:B 0
2 *202:B 0
3 *201:X 0.000171954
4 *31:16 0.000123492
5 *31:8 0.000295447
6 *31:8 *200:A 5.79559e-05
7 *31:8 *200:B 4.93812e-05
8 *31:16 *197:B 5.73288e-05
9 *31:16 *79:40 0
10 *27:10 *31:16 0.000139647
*RES
1 *201:X *31:8 26.0243 
2 *31:8 *31:16 32.5271 
3 *31:16 *202:B 23 
4 *31:8 *203:B 23 
*END

*D_NET *32 0.00168994
*CONN
*I *225:C1 I *D sky130_fd_sc_hd__o211a_1
*I *224:B1 I *D sky130_fd_sc_hd__o21a_1
*I *202:X O *D sky130_fd_sc_hd__or3b_1
*CAP
1 *225:C1 3.59391e-05
2 *224:B1 0
3 *202:X 0.000370972
4 *32:16 0.000141491
5 *32:10 0.000476524
6 *225:C1 *224:A2 5.56279e-05
7 *225:C1 *33:21 8.60475e-05
8 *32:10 *79:40 0
9 *32:16 *224:A2 4.93812e-05
10 *197:C *32:10 5.50049e-05
11 *25:37 *225:C1 6.96918e-05
12 *25:37 *32:10 3.64246e-05
13 *25:37 *32:16 0.000143163
14 *27:10 *32:10 0.000169674
*RES
1 *202:X *32:10 44.7529 
2 *32:10 *32:16 17.5479 
3 *32:16 *224:B1 23 
4 *32:16 *225:C1 24.5743 
*END

*D_NET *33 0.00168679
*CONN
*I *204:B I *D sky130_fd_sc_hd__xor2_1
*I *225:A2 I *D sky130_fd_sc_hd__o211a_1
*I *224:A2 I *D sky130_fd_sc_hd__o21a_1
*I *203:X O *D sky130_fd_sc_hd__xor2_1
*CAP
1 *204:B 0.00010181
2 *225:A2 2.09328e-05
3 *224:A2 6.60445e-05
4 *203:X 0.000276599
5 *33:21 0.000228201
6 *33:12 0.000171502
7 *33:10 0.000276599
8 *33:10 *225:B1 7.69256e-06
9 *33:21 *225:B1 5.50106e-05
10 *204:A *204:B 0.000230604
11 *225:C1 *224:A2 5.56279e-05
12 *225:C1 *33:21 8.60475e-05
13 *25:37 *204:B 1.72202e-05
14 *25:37 *225:A2 1.14154e-05
15 *25:37 *33:10 0
16 *25:37 *33:21 3.20983e-05
17 *32:16 *224:A2 4.93812e-05
*RES
1 *203:X *33:10 42.4121 
2 *33:10 *33:12 15 
3 *33:12 *224:A2 24.5743 
4 *33:12 *33:21 2.52714 
5 *33:21 *225:A2 23.4971 
6 *33:21 *204:B 26.0036 
*END

*D_NET *34 0.00166913
*CONN
*I *229:C_N I *D sky130_fd_sc_hd__nor3b_1
*I *214:B I *D sky130_fd_sc_hd__and2b_1
*I *215:A I *D sky130_fd_sc_hd__xnor2_1
*I *204:X O *D sky130_fd_sc_hd__xor2_1
*CAP
1 *229:C_N 2.51855e-05
2 *214:B 0.000155835
3 *215:A 4.13136e-05
4 *204:X 5.14119e-05
5 *34:14 0.000459412
6 *34:8 0.000338862
7 *214:B *214:A_N 4.34745e-05
8 *214:B *43:21 9.84851e-05
9 *214:B *45:10 5.41288e-05
10 *215:A *43:21 9.84794e-05
11 *229:C_N *54:8 4.2573e-05
12 *34:8 *54:8 5.50049e-05
13 *34:14 *43:27 0.000204961
*RES
1 *204:X *34:8 24.1186 
2 *34:8 *34:14 35.7793 
3 *34:14 *215:A 24.0979 
4 *34:14 *214:B 26.8529 
5 *34:8 *229:C_N 23.6214 
*END

*D_NET *35 0.00276415
*CONN
*I *232:A2 I *D sky130_fd_sc_hd__a21o_1
*I *221:B I *D sky130_fd_sc_hd__xnor2_1
*I *205:X O *D sky130_fd_sc_hd__and4_1
*CAP
1 *232:A2 0.000119948
2 *221:B 2.97696e-05
3 *205:X 1.08631e-05
4 *35:10 0.000796269
5 *35:8 0.000657414
6 *35:8 *205:C 5.50106e-05
7 *35:8 *65:53 5.67058e-05
8 *35:10 *199:B 0.000138181
9 *35:10 *74:57 0
10 *35:10 *75:8 0.000114656
11 *35:10 *76:59 6.72184e-06
12 *35:10 *77:73 0.000241161
13 *35:10 *78:8 0
14 *35:10 *78:34 0.000163352
15 *246:A *35:10 0
16 *29:8 *35:10 0.000118004
17 *29:25 *232:A2 0.000220618
18 *29:25 *35:10 3.54739e-05
*RES
1 *205:X *35:8 38.6214 
2 *35:8 *35:10 14.2307 
3 *35:10 *221:B 38.6214 
4 *35:10 *232:A2 40.9621 
*END

*D_NET *36 0.00156531
*CONN
*I *207:D I *D sky130_fd_sc_hd__and4_1
*I *208:A3 I *D sky130_fd_sc_hd__a31o_1
*I *206:Y O *D sky130_fd_sc_hd__nand4_1
*CAP
1 *207:D 0
2 *208:A3 0.000214205
3 *206:Y 0.000336707
4 *36:10 0.000550912
5 *208:A3 *188:A 5.67058e-05
6 *208:A3 *188:D 0
7 *208:A3 *65:23 1.58805e-05
8 *208:A3 *65:34 3.3746e-05
9 *208:A3 *65:47 4.6318e-06
10 *208:A3 *79:75 0.000124144
11 *36:10 *188:D 0
12 *36:10 *65:47 7.45175e-05
13 *36:10 *65:49 6.53382e-05
14 *36:10 *65:53 2.93747e-05
15 *36:10 *65:80 4.5051e-05
16 *36:10 *73:28 0
17 *20:6 *208:A3 1.40958e-05
*RES
1 *206:Y *36:10 43.2614 
2 *36:10 *208:A3 41.5836 
3 *36:10 *207:D 38 
*END

*D_NET *37 0.00172407
*CONN
*I *213:B1_N I *D sky130_fd_sc_hd__o21ba_1
*I *209:A_N I *D sky130_fd_sc_hd__nand2b_1
*I *207:X O *D sky130_fd_sc_hd__and4_1
*CAP
1 *213:B1_N 0
2 *209:A_N 2.30556e-05
3 *207:X 0.000351554
4 *37:21 0.000390975
5 *37:6 0.000765584
6 *37:6 *77:27 0.000100621
7 *37:6 *77:36 5.50049e-05
8 *37:21 *209:B 1.28818e-05
9 *37:21 *39:8 0
10 *19:10 *37:6 2.43944e-05
*RES
1 *207:X *37:6 29.3386 
2 *37:6 *209:A_N 23.4971 
3 *37:6 *37:21 36.9186 
4 *37:21 *213:B1_N 23 
*END

*D_NET *38 0.00185035
*CONN
*I *209:B I *D sky130_fd_sc_hd__nand2b_1
*I *208:X O *D sky130_fd_sc_hd__a31o_1
*CAP
1 *209:B 9.18627e-06
2 *208:X 0.000569636
3 *38:14 0.000578822
4 *38:14 *188:A 5.67058e-05
5 *38:14 *188:B 0.00015507
6 *38:14 *190:A 0.000274514
7 *38:14 *79:58 0
8 *190:B *38:14 8.48502e-06
9 *192:B *38:14 0
10 *192:C *38:14 2.64616e-05
11 *19:10 *38:14 0
12 *20:6 *38:14 5.73632e-05
13 *21:10 *38:14 0.000101226
14 *22:10 *38:14 0
15 *37:21 *209:B 1.28818e-05
*RES
1 *208:X *38:14 49.2479 
2 *38:14 *209:B 38.1502 
*END

*D_NET *39 0.00115783
*CONN
*I *216:A I *D sky130_fd_sc_hd__xor2_1
*I *213:A1 I *D sky130_fd_sc_hd__o21ba_1
*I *209:Y O *D sky130_fd_sc_hd__nand2b_1
*CAP
1 *216:A 0.000180117
2 *213:A1 6.85048e-05
3 *209:Y 0.000118742
4 *39:10 0.000248622
5 *39:8 0.000118742
6 *213:A1 *213:A2 5.90675e-06
7 *213:A1 *42:18 1.94693e-05
8 *216:A *216:B 0.000232438
9 *216:A *42:18 2.1014e-05
10 *216:A *43:10 0.000144278
11 *37:21 *39:8 0
*RES
1 *209:Y *39:8 39.9057 
2 *39:8 *39:10 15 
3 *39:10 *213:A1 24.4707 
4 *39:10 *216:A 28.5721 
*END

*D_NET *40 0.000247524
*CONN
*I *212:B1 I *D sky130_fd_sc_hd__a31o_1
*I *210:Y O *D sky130_fd_sc_hd__a21oi_1
*CAP
1 *212:B1 5.92127e-05
2 *210:Y 5.92127e-05
3 *212:B1 *212:A1 5.3304e-05
4 *212:B1 *42:8 5.25848e-05
5 *212:B1 *75:38 2.32101e-05
*RES
1 *210:Y *212:B1 47.595 
*END

*D_NET *41 0.000181774
*CONN
*I *212:A3 I *D sky130_fd_sc_hd__a31o_1
*I *211:Y O *D sky130_fd_sc_hd__nand2b_1
*CAP
1 *212:A3 6.23662e-05
2 *211:Y 6.23662e-05
3 *212:A3 *42:8 5.70419e-05
*RES
1 *211:Y *212:A3 47.5743 
*END

*D_NET *42 0.00395839
*CONN
*I *216:B I *D sky130_fd_sc_hd__xor2_1
*I *213:A2 I *D sky130_fd_sc_hd__o21ba_1
*I *212:X O *D sky130_fd_sc_hd__a31o_1
*CAP
1 *216:B 0.000233018
2 *213:A2 2.10549e-05
3 *212:X 0.000727452
4 *42:18 0.000767539
5 *42:8 0.00124092
6 *216:B *43:10 1.76557e-05
7 *42:8 *200:A 6.16164e-05
8 *42:8 *200:B 8.71938e-05
9 *42:8 *212:A1 1.41077e-05
10 *42:8 *75:38 3.98818e-05
11 *42:8 *77:55 1.94812e-05
12 *42:18 *73:56 8.29264e-05
13 *42:18 *77:55 0
14 *42:18 *79:40 5.31444e-05
15 *42:18 *79:44 2.38613e-05
16 *202:C_N *42:18 1.2153e-05
17 *212:A3 *42:8 5.70419e-05
18 *212:B1 *42:8 5.25848e-05
19 *213:A1 *213:A2 5.90675e-06
20 *213:A1 *42:18 1.94693e-05
21 *216:A *216:B 0.000232438
22 *216:A *42:18 2.1014e-05
23 *22:42 *42:18 0.000167927
*RES
1 *212:X *42:8 48.6264 
2 *42:8 *42:18 23.6171 
3 *42:18 *213:A2 23.4971 
4 *42:18 *216:B 28.2821 
*END

*D_NET *43 0.0025078
*CONN
*I *214:A_N I *D sky130_fd_sc_hd__and2b_1
*I *229:A I *D sky130_fd_sc_hd__nor3b_1
*I *215:B I *D sky130_fd_sc_hd__xnor2_1
*I *213:X O *D sky130_fd_sc_hd__o21ba_1
*CAP
1 *214:A_N 2.45968e-05
2 *229:A 0
3 *215:B 0
4 *213:X 0.000357958
5 *43:27 0.000234269
6 *43:21 0.00037033
7 *43:14 0.000333412
8 *43:10 0.000579906
9 *43:27 *56:10 0
10 *43:27 *57:10 0
11 *214:B *214:A_N 4.34745e-05
12 *214:B *43:21 9.84851e-05
13 *215:A *43:21 9.84794e-05
14 *216:A *43:10 0.000144278
15 *216:B *43:10 1.76557e-05
16 *34:14 *43:27 0.000204961
*RES
1 *213:X *43:10 44.67 
2 *43:10 *43:14 18.9564 
3 *43:14 *215:B 23 
4 *43:14 *43:21 2.52714 
5 *43:21 *43:27 35.4271 
6 *43:27 *229:A 23 
7 *43:21 *214:A_N 23.6214 
*END

*D_NET *44 0.000688176
*CONN
*I *228:B1 I *D sky130_fd_sc_hd__a31o_1
*I *214:X O *D sky130_fd_sc_hd__and2b_1
*CAP
1 *228:B1 0.000150899
2 *214:X 9.8922e-05
3 *44:8 0.000249821
4 *228:B1 *228:A3 7.28721e-05
5 *228:B1 *57:10 2.93747e-05
6 *44:8 *45:10 0
7 *44:8 *57:10 8.62876e-05
*RES
1 *214:X *44:8 39.9057 
2 *44:8 *228:B1 41.0036 
*END

*D_NET *45 0.00131969
*CONN
*I *228:A2 I *D sky130_fd_sc_hd__a31o_1
*I *218:A I *D sky130_fd_sc_hd__xnor2_1
*I *215:Y O *D sky130_fd_sc_hd__xnor2_1
*CAP
1 *228:A2 0
2 *218:A 0.000234712
3 *215:Y 0.000206877
4 *45:10 0.000441589
5 *218:A *47:6 0.000140259
6 *218:A *47:12 9.48381e-06
7 *214:B *45:10 5.41288e-05
8 *228:A1 *218:A 0.000221193
9 *24:10 *218:A 1.14452e-05
10 *44:8 *45:10 0
*RES
1 *215:Y *45:10 41.3557 
2 *45:10 *218:A 43.0129 
3 *45:10 *228:A2 38 
*END

*D_NET *46 0.00164409
*CONN
*I *228:A3 I *D sky130_fd_sc_hd__a31o_1
*I *217:B I *D sky130_fd_sc_hd__nand2_1
*I *238:B I *D sky130_fd_sc_hd__or2_1
*I *216:X O *D sky130_fd_sc_hd__xor2_1
*CAP
1 *228:A3 0.000148944
2 *217:B 0
3 *238:B 0.000115107
4 *216:X 0.000321894
5 *46:10 0.000222257
6 *46:6 0.000577987
7 *238:B *47:12 0
8 *228:A1 *46:10 9.3813e-05
9 *228:B1 *228:A3 7.28721e-05
10 *24:10 *238:B 8.51432e-05
11 *24:10 *46:10 6.07611e-06
*RES
1 *216:X *46:6 28.3857 
2 *46:6 *46:10 17.61 
3 *46:10 *238:B 40.61 
4 *46:10 *217:B 38 
5 *46:6 *228:A3 25.5479 
*END

*D_NET *47 0.000802037
*CONN
*I *218:B I *D sky130_fd_sc_hd__xnor2_1
*I *239:A I *D sky130_fd_sc_hd__and2_1
*I *217:Y O *D sky130_fd_sc_hd__nand2_1
*CAP
1 *218:B 0
2 *239:A 0
3 *217:Y 0.000137653
4 *47:12 0.000188494
5 *47:6 0.000326147
6 P[4] *47:12 0
7 *218:A *47:6 0.000140259
8 *218:A *47:12 9.48381e-06
9 *238:B *47:12 0
10 *24:10 *47:12 0
*RES
1 *217:Y *47:6 25.5271 
2 *47:6 *47:12 33.3143 
3 *47:12 *239:A 23 
4 *47:6 *218:B 23 
*END

*D_NET *48 0.00389019
*CONN
*I *237:C1 I *D sky130_fd_sc_hd__a211o_1
*I *222:A_N I *D sky130_fd_sc_hd__and4bb_1
*I *220:A_N I *D sky130_fd_sc_hd__and3b_1
*I *219:X O *D sky130_fd_sc_hd__and4_1
*CAP
1 *237:C1 0
2 *222:A_N 0.000296213
3 *220:A_N 0
4 *219:X 0.000136139
5 *48:42 0.000358618
6 *48:21 0.000922036
7 *48:8 0.000403344
8 *222:A_N *223:B 2.71844e-05
9 *222:A_N *79:38 0.000405568
10 *48:8 *195:A 0.000187129
11 *48:8 *195:B 3.91386e-05
12 *48:8 *220:B 2.06634e-05
13 *48:8 *74:77 4.95081e-05
14 *48:21 *220:B 0.000103637
15 *48:21 *49:8 0.000141975
16 *48:21 *75:84 5.40338e-05
17 *48:21 *79:38 7.76364e-06
18 *48:21 *79:40 1.62015e-05
19 *48:42 *52:10 0.000322634
20 *48:42 *59:18 5.31236e-05
21 *25:10 *48:8 0.000113903
22 *25:10 *48:21 0.000231376
*RES
1 *219:X *48:8 27.3293 
2 *48:8 *220:A_N 23 
3 *48:8 *48:21 37.1464 
4 *48:21 *222:A_N 30.0014 
5 *48:21 *48:42 37.5193 
6 *48:42 *237:C1 23 
*END

*D_NET *49 0.000328109
*CONN
*I *223:A I *D sky130_fd_sc_hd__xor2_1
*I *220:X O *D sky130_fd_sc_hd__and3b_1
*CAP
1 *223:A 0
2 *220:X 5.96323e-05
3 *49:8 5.96323e-05
4 *49:8 *79:38 6.6869e-05
5 *48:21 *49:8 0.000141975
*RES
1 *220:X *49:8 39.9057 
2 *49:8 *223:A 38 
*END

*D_NET *50 0.00165541
*CONN
*I *223:B I *D sky130_fd_sc_hd__xor2_1
*I *222:B_N I *D sky130_fd_sc_hd__and4bb_1
*I *221:Y O *D sky130_fd_sc_hd__xnor2_1
*CAP
1 *223:B 0.00024219
2 *222:B_N 0
3 *221:Y 0.000242802
4 *50:8 0.000484992
5 *223:B *79:38 0.000402801
6 *50:8 *51:10 1.73399e-05
7 *50:8 *74:14 3.22879e-05
8 *50:8 *74:27 1.03836e-05
9 *50:8 *79:38 0.000195432
10 *222:A_N *223:B 2.71844e-05
*RES
1 *221:Y *50:8 27.93 
2 *50:8 *222:B_N 23 
3 *50:8 *223:B 28.7586 
*END

*D_NET *51 0.000478533
*CONN
*I *232:B1 I *D sky130_fd_sc_hd__a21o_1
*I *222:X O *D sky130_fd_sc_hd__and4bb_1
*CAP
1 *232:B1 0
2 *222:X 0.0001701
3 *51:10 0.0001701
4 *51:10 *74:10 3.31683e-05
5 *8:11 *51:10 0
6 *29:12 *51:10 3.7122e-06
7 *29:25 *51:10 8.41115e-05
8 *50:8 *51:10 1.73399e-05
*RES
1 *222:X *51:10 41.3557 
2 *51:10 *232:B1 38 
*END

*D_NET *52 0.00221274
*CONN
*I *226:A I *D sky130_fd_sc_hd__nor2_1
*I *225:B1 I *D sky130_fd_sc_hd__o211a_1
*I *223:X O *D sky130_fd_sc_hd__xor2_1
*CAP
1 *226:A 3.09382e-05
2 *225:B1 0.000203132
3 *223:X 0.000315375
4 *52:10 0.000549445
5 *225:B1 *53:8 0.000171906
6 *226:A *55:8 2.93845e-05
7 *52:10 *233:A 5.3304e-05
8 *52:10 *59:12 0.000406854
9 *52:10 *59:18 3.47781e-05
10 *25:37 *225:B1 3.22879e-05
11 *33:10 *225:B1 7.69256e-06
12 *33:21 *225:B1 5.50106e-05
13 *48:42 *52:10 0.000322634
*RES
1 *223:X *52:10 46.3479 
2 *52:10 *225:B1 42.7021 
3 *52:10 *226:A 38.6214 
*END

*D_NET *53 0.000343262
*CONN
*I *226:B I *D sky130_fd_sc_hd__nor2_1
*I *224:X O *D sky130_fd_sc_hd__o21a_1
*CAP
1 *226:B 0
2 *224:X 8.56784e-05
3 *53:8 8.56784e-05
4 *225:B1 *53:8 0.000171906
*RES
1 *224:X *53:8 40.2579 
2 *53:8 *226:B 38 
*END

*D_NET *54 0.00107905
*CONN
*I *227:A I *D sky130_fd_sc_hd__nor2_1
*I *229:B I *D sky130_fd_sc_hd__nor3b_1
*I *225:X O *D sky130_fd_sc_hd__o211a_1
*CAP
1 *227:A 5.87053e-05
2 *229:B 0
3 *225:X 0.000310112
4 *54:8 0.000368818
5 *227:A *227:B 0.00010018
6 *54:8 *227:B 0
7 *204:A *54:8 0.000143655
8 *229:C_N *54:8 4.2573e-05
9 *34:8 *54:8 5.50049e-05
*RES
1 *225:X *54:8 28.8829 
2 *54:8 *229:B 23 
3 *54:8 *227:A 24.5743 
*END

*D_NET *55 0.00301016
*CONN
*I *235:A I *D sky130_fd_sc_hd__nor3_1
*I *234:A1 I *D sky130_fd_sc_hd__o21a_1
*I *227:B I *D sky130_fd_sc_hd__nor2_1
*I *226:Y O *D sky130_fd_sc_hd__nor2_1
*CAP
1 *235:A 0.000213158
2 *234:A1 0
3 *227:B 0.000249524
4 *226:Y 0.000694042
5 *55:23 0.0003259
6 *55:8 0.00105631
7 *227:B *56:10 2.30292e-05
8 *227:B *58:10 0.000146933
9 *235:A *236:A 5.50106e-05
10 *235:A *236:B 3.22879e-05
11 *235:A *58:10 1.75213e-05
12 *235:A *62:8 0
13 *55:23 *58:10 6.68793e-05
14 *55:23 *62:8 0
15 P[6] *235:A 0
16 *226:A *55:8 2.93845e-05
17 *227:A *227:B 0.00010018
18 *54:8 *227:B 0
*RES
1 *226:Y *55:8 47.1971 
2 *55:8 *227:B 44.2143 
3 *55:8 *55:23 1.90571 
4 *55:23 *234:A1 38 
5 *55:23 *235:A 41.5421 
*END

*D_NET *56 0.000471936
*CONN
*I *230:A I *D sky130_fd_sc_hd__xor2_1
*I *227:Y O *D sky130_fd_sc_hd__nor2_1
*CAP
1 *230:A 0
2 *227:Y 0.000224453
3 *56:10 0.000224453
4 *227:B *56:10 2.30292e-05
5 *43:27 *56:10 0
*RES
1 *227:Y *56:10 41.48 
2 *56:10 *230:A 38 
*END

*D_NET *57 0.000773006
*CONN
*I *230:B I *D sky130_fd_sc_hd__xor2_1
*I *228:X O *D sky130_fd_sc_hd__a31o_1
*CAP
1 *230:B 0
2 *228:X 0.000328672
3 *57:10 0.000328672
4 P[5] *57:10 0
5 *228:B1 *57:10 2.93747e-05
6 *43:27 *57:10 0
7 *44:8 *57:10 8.62876e-05
*RES
1 *228:X *57:10 43.8207 
2 *57:10 *230:B 38 
*END

*D_NET *58 0.00112241
*CONN
*I *235:B I *D sky130_fd_sc_hd__nor3_1
*I *234:A2 I *D sky130_fd_sc_hd__o21a_1
*I *229:Y O *D sky130_fd_sc_hd__nor3b_1
*CAP
1 *235:B 0
2 *234:A2 9.98287e-05
3 *229:Y 0.00027002
4 *58:12 9.98287e-05
5 *58:10 0.00027002
6 *234:A2 *234:B1 5.90675e-06
7 *234:A2 *235:C 6.9907e-05
8 *234:A2 *236:A 2.05606e-05
9 *234:A2 *236:B 5.50049e-05
10 *227:B *58:10 0.000146933
11 *235:A *58:10 1.75213e-05
12 *55:23 *58:10 6.68793e-05
*RES
1 *229:Y *58:10 43.3443 
2 *58:10 *58:12 15 
3 *58:12 *234:A2 25.5686 
4 *58:12 *235:B 23 
*END

*D_NET *59 0.00162722
*CONN
*I *233:A I *D sky130_fd_sc_hd__xor2_1
*I *237:A1 I *D sky130_fd_sc_hd__a211o_1
*I *231:X O *D sky130_fd_sc_hd__and3_1
*CAP
1 *233:A 5.74392e-05
2 *237:A1 0
3 *231:X 0.000105841
4 *59:18 0.000124258
5 *59:12 0.000380538
6 *59:8 0.000304681
7 *233:A *60:25 7.53384e-06
8 *59:18 *60:25 9.88678e-05
9 *48:42 *59:18 5.31236e-05
10 *52:10 *233:A 5.3304e-05
11 *52:10 *59:12 0.000406854
12 *52:10 *59:18 3.47781e-05
*RES
1 *231:X *59:8 39.9057 
2 *59:8 *59:12 19.4329 
3 *59:12 *59:18 33.3143 
4 *59:18 *237:A1 23 
5 *59:12 *233:A 24.0979 
*END

*D_NET *60 0.00266283
*CONN
*I *233:B I *D sky130_fd_sc_hd__xor2_1
*I *237:A2 I *D sky130_fd_sc_hd__a211o_1
*I *232:X O *D sky130_fd_sc_hd__a21o_1
*CAP
1 *233:B 0
2 *237:A2 0