*SPEF "ieee 1481-1999"
*DESIGN "e7_SARSA_nSteps_INDEPENDIENTES"
*DATE "14:18:19 Tuesday September 16, 2025"
*VENDOR "The OpenROAD Project"
*PROGRAM "OpenROAD"
*VERSION "edf00dff99f6c40d67a30c0e22a8191c5d2ed9d6"
*DESIGN_FLOW "NAME_SCOPE LOCAL" "PIN_CAP NONE"
*DIVIDER /
*DELIMITER :
*BUS_DELIMITER []
*T_UNIT 1 NS
*C_UNIT 1 PF
*R_UNIT 1 OHM
*L_UNIT 1 HENRY

*NAME_MAP
*1 A[0]
*2 A[1]
*3 B[0]
*4 B[1]
*5 P[0]
*6 P[1]
*7 P[2]
*8 net6
*11 net1
*12 net2
*13 net3
*14 net4
*15 net5
*16 pp2
*17 FILLER_0_15
*18 FILLER_0_27
*19 FILLER_0_29
*20 FILLER_0_3
*21 FILLER_0_41
*22 FILLER_0_53
*23 FILLER_0_57
*24 FILLER_0_69
*25 FILLER_1_15
*26 FILLER_1_27
*27 FILLER_1_3
*28 FILLER_1_39
*29 FILLER_1_51
*30 FILLER_1_55
*31 FILLER_1_57
*32 FILLER_1_69
*33 FILLER_2_15
*34 FILLER_2_27
*35 FILLER_2_29
*36 FILLER_2_3
*37 FILLER_2_41
*38 FILLER_2_53
*39 FILLER_2_65
*40 FILLER_2_77
*41 FILLER_3_15
*42 FILLER_3_27
*43 FILLER_3_3
*44 FILLER_3_39
*45 FILLER_3_51
*46 FILLER_3_55
*47 FILLER_3_57
*48 FILLER_3_69
*49 FILLER_4_15
*50 FILLER_4_29
*51 FILLER_4_41
*52 FILLER_4_53
*53 FILLER_4_6
*54 FILLER_4_65
*55 FILLER_5_12
*56 FILLER_5_16
*57 FILLER_5_28
*58 FILLER_5_40
*59 FILLER_5_52
*60 FILLER_5_57
*61 FILLER_5_6
*62 FILLER_5_69
*63 FILLER_6_19
*64 FILLER_6_27
*65 FILLER_6_29
*66 FILLER_6_41
*67 FILLER_6_53
*68 FILLER_6_65
*69 FILLER_6_7
*70 FILLER_6_77
*71 FILLER_7_15
*72 FILLER_7_27
*73 FILLER_7_3
*74 FILLER_7_39
*75 FILLER_7_51
*76 FILLER_7_55
*77 FILLER_7_57
*78 FILLER_7_69
*79 FILLER_8_15
*80 FILLER_8_27
*81 FILLER_8_29
*82 FILLER_8_3
*83 FILLER_8_41
*84 FILLER_8_53
*85 FILLER_8_65
*86 FILLER_8_77
*87 FILLER_9_15
*88 FILLER_9_27
*89 FILLER_9_29
*90 FILLER_9_3
*91 FILLER_9_41
*92 FILLER_9_53
*93 FILLER_9_57
*94 FILLER_9_69
*95 PHY_EDGE_ROW_0_Left_10
*96 PHY_EDGE_ROW_0_Right_0
*97 PHY_EDGE_ROW_1_Left_11
*98 PHY_EDGE_ROW_1_Right_1
*99 PHY_EDGE_ROW_2_Left_12
*100 PHY_EDGE_ROW_2_Right_2
*101 PHY_EDGE_ROW_3_Left_13
*102 PHY_EDGE_ROW_3_Right_3
*103 PHY_EDGE_ROW_4_Left_14
*104 PHY_EDGE_ROW_4_Right_4
*105 PHY_EDGE_ROW_5_Left_15
*106 PHY_EDGE_ROW_5_Right_5
*107 PHY_EDGE_ROW_6_Left_16
*108 PHY_EDGE_ROW_6_Right_6
*109 PHY_EDGE_ROW_7_Left_17
*110 PHY_EDGE_ROW_7_Right_7
*111 PHY_EDGE_ROW_8_Left_18
*112 PHY_EDGE_ROW_8_Right_8
*113 PHY_EDGE_ROW_9_Left_19
*114 PHY_EDGE_ROW_9_Right_9
*115 TAP_TAPCELL_ROW_0_20
*116 TAP_TAPCELL_ROW_0_21
*117 TAP_TAPCELL_ROW_1_22
*118 TAP_TAPCELL_ROW_2_23
*119 TAP_TAPCELL_ROW_3_24
*120 TAP_TAPCELL_ROW_4_25
*121 TAP_TAPCELL_ROW_5_26
*122 TAP_TAPCELL_ROW_6_27
*123 TAP_TAPCELL_ROW_7_28
*124 TAP_TAPCELL_ROW_8_29
*125 TAP_TAPCELL_ROW_9_30
*126 TAP_TAPCELL_ROW_9_31
*127 _0_
*128 _1_
*129 _2_
*130 _4_
*131 e7_SARSA_nSteps_INDEPENDIENTES_6
*132 input1
*133 input2
*134 output3
*135 output4
*136 output5

*PORTS
A[0] I
A[1] I
B[0] I
B[1] I
P[0] O
P[1] O
P[2] O
P[3] O

*D_NET *2 0.000670164
*CONN
*P A[1] I
*I *132:A I *D sky130_fd_sc_hd__clkbuf_1
*CAP
1 A[1] 0.000305702
2 *132:A 0.000305702
3 *132:A P[0] 2.87684e-05
4 *132:A *133:A 2.99915e-05
*RES
1 A[1] *132:A 21.391 
*END

*D_NET *4 0.000688268
*CONN
*P B[1] I
*I *133:A I *D sky130_fd_sc_hd__clkbuf_1
*CAP
1 B[1] 0.000329138
2 *133:A 0.000329138
3 *132:A *133:A 2.99915e-05
*RES
1 B[1] *133:A 21.6946 
*END

*D_NET *5 0.000521946
*CONN
*P P[0] O
*I *134:X O *D sky130_fd_sc_hd__buf_2
*CAP
1 P[0] 0.000241787
2 *134:X 0.000241787
3 P[0] *134:A 9.60337e-06
4 *132:A P[0] 2.87684e-05
*RES
1 *134:X P[0] 18.1949 
*END

*D_NET *6 0.00062747
*CONN
*P P[1] O
*I *135:X O *D sky130_fd_sc_hd__buf_2
*CAP
1 P[1] 0.000267297
2 *135:X 0.000267297
3 P[1] P[2] 9.28756e-05
*RES
1 *135:X P[1] 19.4092 
*END

*D_NET *7 0.000572941
*CONN
*P P[2] O
*I *136:X O *D sky130_fd_sc_hd__buf_2
*CAP
1 P[2] 0.000197166
2 *136:X 0.000197166
3 P[2] P[3] 8.57347e-05
4 P[1] P[2] 9.28756e-05
*RES
1 *136:X P[2] 18.8021 
*END

*D_NET *8 0.000498111
*CONN
*P P[3] O
*I *131:LO O *D sky130_fd_sc_hd__conb_1
*CAP
1 P[3] 0.000206188
2 *131:LO 0.000206188
3 P[2] P[3] 8.57347e-05
*RES
1 *131:LO P[3] 18.73 
*END

*D_NET *11 0.00168109
*CONN
*I *128:A I *D sky130_fd_sc_hd__or2_1
*I *129:A I *D sky130_fd_sc_hd__and2_1
*I *127:A I *D sky130_fd_sc_hd__nor2_1
*I *132:X O *D sky130_fd_sc_hd__clkbuf_1
*CAP
1 *128:A 0.000158327
2 *129:A 0
3 *127:A 0
4 *132:X 0.000371088
5 *11:21 0.000285718
6 *11:12 0.000498479
7 *128:A *128:B 8.07313e-05
8 *128:A *129:B 0
9 *128:A *12:17 4.88637e-05
10 *11:12 *130:A 3.92757e-05
11 *11:12 *134:A 3.13838e-05
12 *11:21 *127:B 5.7661e-06
13 *11:21 *12:8 5.62995e-05
14 *11:21 *12:17 0.000105163
*RES
1 *132:X *11:12 23.2464 
2 *11:12 *127:A 9.3 
3 *11:12 *11:21 3.01786 
4 *11:21 *129:A 9.3 
5 *11:21 *128:A 12.7286 
*END

*D_NET *12 0.00121445
*CONN
*I *128:B I *D sky130_fd_sc_hd__or2_1
*I *129:B I *D sky130_fd_sc_hd__and2_1
*I *127:B I *D sky130_fd_sc_hd__nor2_1
*I *133:X O *D sky130_fd_sc_hd__clkbuf_1
*CAP
1 *128:B 5.85119e-05
2 *129:B 1.11927e-05
3 *127:B 2.03441e-05
4 *133:X 0.000252798
5 *12:17 0.000185673
6 *12:8 0.00038911
7 *128:A *128:B 8.07313e-05
8 *128:A *129:B 0
9 *128:A *12:17 4.88637e-05
10 *11:21 *127:B 5.7661e-06
11 *11:21 *12:8 5.62995e-05
12 *11:21 *12:17 0.000105163
*RES
1 *133:X *12:8 13.55 
2 *12:8 *127:B 9.72857 
3 *12:8 *12:17 2.58929 
4 *12:17 *129:B 9.72857 
5 *12:17 *128:B 10.6571 
*END

*D_NET *13 0.000729131
*CONN
*I *134:A I *D sky130_fd_sc_hd__buf_2
*I *130:X O *D sky130_fd_sc_hd__clkbuf_1
*CAP
1 *134:A 0.000344072
2 *130:X 0.000344072
3 P[0] *134:A 9.60337e-06
4 *11:12 *134:A 3.13838e-05
*RES
1 *130:X *134:A 32.2429 
*END

*D_NET *14 0.00246343
*CONN
*I *135:A I *D sky130_fd_sc_hd__buf_2
*I *128:X O *D sky130_fd_sc_hd__or2_1
*CAP
1 *135:A 0.00123172
2 *128:X 0.00123172
*RES
1 *128:X *135:A 39.2607 
*END

*D_NET *15 0.00298496
*CONN
*I *136:A I *D sky130_fd_sc_hd__buf_2
*I *129:X O *D sky130_fd_sc_hd__and2_1
*CAP
1 *136:A 0
2 *129:X 0.00149248
3 *15:12 0.00149248
4 *15:12 *130:A 0
*RES
1 *129:X *15:12 42.9607 
2 *15:12 *136:A 9.3 
*END

*D_NET *16 0.000314541
*CONN
*I *130:A I *D sky130_fd_sc_hd__clkbuf_1
*I *127:Y O *D sky130_fd_sc_hd__nor2_1
*CAP
1 *130:A 0.000137632
2 *127:Y 0.000137632
3 *11:12 *130:A 3.92757e-05
4 *15:12 *130:A 0
*RES
1 *127:Y *130:A 30.0821 
*END
