*SPEF "ieee 1481-1999"
*DESIGN "mult4_SarsaNStepsRuido_e9_SARSA_RUIDO_e9_SarsaNStepsRuido_e9_SARSA_RUIDO_e9"
*DATE "11:59:20 Wednesday September 17, 2025"
*VENDOR "The OpenROAD Project"
*PROGRAM "OpenROAD"
*VERSION "edf00dff99f6c40d67a30c0e22a8191c5d2ed9d6"
*DESIGN_FLOW "NAME_SCOPE LOCAL" "PIN_CAP NONE"
*DIVIDER /
*DELIMITER :
*BUS_DELIMITER []
*T_UNIT 1 NS
*C_UNIT 1 PF
*R_UNIT 1 OHM
*L_UNIT 1 HENRY

*NAME_MAP
*1 A[0]
*2 A[1]
*3 A[2]
*4 A[3]
*5 B[0]
*6 B[1]
*7 B[2]
*8 B[3]
*9 net16
*10 P[1]
*11 P[2]
*12 P[3]
*13 P[4]
*14 P[5]
*15 P[6]
*16 P[7]
*19 _000_
*20 _001_
*21 _002_
*22 _003_
*23 _004_
*24 _005_
*25 _006_
*26 _007_
*27 _008_
*28 _009_
*29 _010_
*30 _011_
*31 _012_
*32 _013_
*33 _014_
*34 _015_
*35 _016_
*36 _017_
*37 _018_
*38 _019_
*39 _020_
*40 _021_
*41 _022_
*42 _023_
*43 _024_
*44 _025_
*45 _026_
*46 _027_
*47 _028_
*48 _029_
*49 _030_
*50 _031_
*51 _032_
*52 _033_
*53 _034_
*54 _035_
*55 _036_
*56 _037_
*57 _038_
*58 _039_
*59 _040_
*60 _041_
*61 _042_
*62 _043_
*63 _044_
*64 _045_
*65 _046_
*66 _047_
*67 _048_
*68 _049_
*69 _050_
*70 _051_
*71 _052_
*72 net1
*73 net10
*74 net11
*75 net12
*76 net13
*77 net14
*78 net15
*79 net2
*80 net3
*81 net4
*82 net5
*83 net6
*84 net7
*85 net8
*86 net9
*87 FILLER_0_18
*88 FILLER_0_26
*89 FILLER_0_34
*90 FILLER_0_41
*91 FILLER_0_49
*92 FILLER_0_55
*93 FILLER_0_57
*94 FILLER_0_6
*95 FILLER_0_69
*96 FILLER_1_24
*97 FILLER_1_54
*98 FILLER_1_57
*99 FILLER_1_72
*100 FILLER_1_76
*101 FILLER_2_19
*102 FILLER_2_27
*103 FILLER_2_29
*104 FILLER_2_37
*105 FILLER_2_45
*106 FILLER_2_57
*107 FILLER_2_63
*108 FILLER_2_72
*109 FILLER_2_80
*110 FILLER_3_10
*111 FILLER_3_27
*112 FILLER_3_46
*113 FILLER_3_54
*114 FILLER_3_57
*115 FILLER_3_77
*116 FILLER_4_13
*117 FILLER_4_17
*118 FILLER_4_25
*119 FILLER_4_29
*120 FILLER_4_33
*121 FILLER_4_39
*122 FILLER_4_48
*123 FILLER_4_59
*124 FILLER_4_74
*125 FILLER_4_80
*126 FILLER_5_13
*127 FILLER_5_29
*128 FILLER_5_38
*129 FILLER_5_46
*130 FILLER_5_57
*131 FILLER_5_69
*132 FILLER_5_77
*133 FILLER_6_23
*134 FILLER_6_3
*135 FILLER_6_36
*136 FILLER_6_50
*137 FILLER_6_73
*138 FILLER_7_25
*139 FILLER_7_35
*140 FILLER_7_40
*141 FILLER_7_52
*142 FILLER_7_57
*143 FILLER_7_69
*144 FILLER_7_7
*145 FILLER_8_11
*146 FILLER_8_15
*147 FILLER_8_27
*148 FILLER_8_54
*149 FILLER_8_62
*150 FILLER_8_72
*151 FILLER_8_80
*152 FILLER_9_14
*153 FILLER_9_26
*154 FILLER_9_29
*155 FILLER_9_41
*156 FILLER_9_57
*157 FILLER_9_69
*158 FILLER_9_73
*159 PHY_EDGE_ROW_0_Left_10
*160 PHY_EDGE_ROW_0_Right_0
*161 PHY_EDGE_ROW_1_Left_11
*162 PHY_EDGE_ROW_1_Right_1
*163 PHY_EDGE_ROW_2_Left_12
*164 PHY_EDGE_ROW_2_Right_2
*165 PHY_EDGE_ROW_3_Left_13
*166 PHY_EDGE_ROW_3_Right_3
*167 PHY_EDGE_ROW_4_Left_14
*168 PHY_EDGE_ROW_4_Right_4
*169 PHY_EDGE_ROW_5_Left_15
*170 PHY_EDGE_ROW_5_Right_5
*171 PHY_EDGE_ROW_6_Left_16
*172 PHY_EDGE_ROW_6_Right_6
*173 PHY_EDGE_ROW_7_Left_17
*174 PHY_EDGE_ROW_7_Right_7
*175 PHY_EDGE_ROW_8_Left_18
*176 PHY_EDGE_ROW_8_Right_8
*177 PHY_EDGE_ROW_9_Left_19
*178 PHY_EDGE_ROW_9_Right_9
*179 TAP_TAPCELL_ROW_0_20
*180 TAP_TAPCELL_ROW_0_21
*181 TAP_TAPCELL_ROW_1_22
*182 TAP_TAPCELL_ROW_2_23
*183 TAP_TAPCELL_ROW_3_24
*184 TAP_TAPCELL_ROW_4_25
*185 TAP_TAPCELL_ROW_5_26
*186 TAP_TAPCELL_ROW_6_27
*187 TAP_TAPCELL_ROW_7_28
*188 TAP_TAPCELL_ROW_8_29
*189 TAP_TAPCELL_ROW_9_30
*190 TAP_TAPCELL_ROW_9_31
*191 _053_
*192 _054_
*193 _055_
*194 _056_
*195 _057_
*196 _058_
*197 _059_
*198 _060_
*199 _061_
*200 _062_
*201 _063_
*202 _064_
*203 _065_
*204 _066_
*205 _067_
*206 _068_
*207 _069_
*208 _070_
*209 _071_
*210 _072_
*211 _073_
*212 _074_
*213 _075_
*214 _076_
*215 _077_
*216 _078_
*217 _079_
*218 _080_
*219 _081_
*220 _082_
*221 _083_
*222 _084_
*223 _085_
*224 _086_
*225 _087_
*226 _088_
*227 _089_
*228 _090_
*229 _091_
*230 _092_
*231 _093_
*232 _094_
*233 _095_
*234 _096_
*235 _097_
*236 _098_
*237 _099_
*238 _100_
*239 _101_
*240 _102_
*241 _103_
*242 _104_
*243 _105_
*244 _106_
*245 _107_
*246 _108_
*247 _109_
*248 _110_
*249 _111_
*250 _112_
*251 input1
*252 input2
*253 input3
*254 input4
*255 input5
*256 input6
*257 input7
*258 input8
*259 mult4_SarsaNStepsRuido_e9_SARSA_RUIDO_e9_SarsaNStepsRuido_e9_SARSA_RUIDO_e9_16
*260 output10
*261 output11
*262 output12
*263 output13
*264 output14
*265 output15
*266 output9

*PORTS
A[0] I
A[1] I
A[2] I
A[3] I
B[0] I
B[1] I
B[2] I
B[3] I
P[0] O
P[1] O
P[2] O
P[3] O
P[4] O
P[5] O
P[6] O
P[7] O

*D_NET *1 0.000595152
*CONN
*P A[0] I
*I *251:A I *D sky130_fd_sc_hd__dlymetal6s2s_1
*CAP
1 A[0] 0.000268504
2 *251:A 0.000268504
3 *251:A P[1] 2.85068e-05
4 *251:A *254:A 2.96366e-05
*RES
1 A[0] *251:A 7.3443 
*END

*D_NET *2 0.000583519
*CONN
*P A[1] I
*I *252:A I *D sky130_fd_sc_hd__clkbuf_2
*CAP
1 A[1] 0.000277687
2 *252:A 0.000277687
3 *252:A *255:A 2.81454e-05
*RES
1 A[1] *252:A 7.1793 
*END

*D_NET *3 0.000822739
*CONN
*P A[2] I
*I *253:A I *D sky130_fd_sc_hd__buf_1
*CAP
1 A[2] 0.000383069
2 *253:A 0.000383069
3 *253:A P[7] 0
4 *253:A *230:A2 0
5 *253:A *230:A3 8.30853e-06
6 *253:A *230:B1 4.82919e-05
*RES
1 A[2] *253:A 10.35 
*END

*D_NET *4 0.000651011
*CONN
*P A[3] I
*I *254:A I *D sky130_fd_sc_hd__dlymetal6s2s_1
*CAP
1 A[3] 0.000297188
2 *254:A 0.000297188
3 *254:A *258:A 2.69997e-05
4 *251:A *254:A 2.96366e-05
*RES
1 A[3] *254:A 7.8543 
*END

*D_NET *5 0.000605168
*CONN
*P B[0] I
*I *255:A I *D sky130_fd_sc_hd__clkbuf_2
*CAP
1 B[0] 0.000264274
2 *255:A 0.000264274
3 *255:A *256:A 4.8475e-05
4 *252:A *255:A 2.81454e-05
*RES
1 B[0] *255:A 7.1793 
*END

*D_NET *6 0.000597321
*CONN
*P B[1] I
*I *256:A I *D sky130_fd_sc_hd__clkbuf_2
*CAP
1 B[1] 0.000263178
2 *256:A 0.000263178
3 *256:A P[1] 2.24901e-05
4 *255:A *256:A 4.8475e-05
*RES
1 B[1] *256:A 7.1793 
*END

*D_NET *7 0.000755337
*CONN
*P B[2] I
*I *257:A I *D sky130_fd_sc_hd__buf_1
*CAP
1 B[2] 0.000364169
2 *257:A 0.000364169
3 *257:A *258:A 2.69997e-05
4 *257:A *84:10 0
*RES
1 B[2] *257:A 8.6193 
*END

*D_NET *8 0.000543312
*CONN
*P B[3] I
*I *258:A I *D sky130_fd_sc_hd__dlymetal6s2s_1
*CAP
1 B[3] 0.000244656
2 *258:A 0.000244656
3 *254:A *258:A 2.69997e-05
4 *257:A *258:A 2.69997e-05
*RES
1 B[3] *258:A 6.8343 
*END

*D_NET *9 0.000645949
*CONN
*P P[0] O
*I *259:LO O *D sky130_fd_sc_hd__conb_1
*CAP
1 P[0] 0.000271949
2 *259:LO 0.000271949
3 P[0] P[4] 9.25475e-05
4 P[0] *262:A 9.50342e-06
*RES
1 *259:LO P[0] 5.58983 
*END

*D_NET *10 0.00158325
*CONN
*P P[1] O
*I *266:X O *D sky130_fd_sc_hd__buf_2
*CAP
1 P[1] 0.000489378
2 *266:X 0.000489378
3 P[1] *26:17 7.23602e-05
4 P[1] *45:8 0.000164336
5 P[1] *82:12 0.000316799
6 *251:A P[1] 2.85068e-05
7 *256:A P[1] 2.24901e-05
*RES
1 *266:X P[1] 9.27637 
*END

*D_NET *11 0.000894056
*CONN
*P P[2] O
*I *260:X O *D sky130_fd_sc_hd__buf_2
*CAP
1 P[2] 0.000447028
2 *260:X 0.000447028
3 P[2] P[3] 0
*RES
1 *260:X P[2] 11.55 
*END

*D_NET *12 0.000894056
*CONN
*P P[3] O
*I *261:X O *D sky130_fd_sc_hd__buf_2
*CAP
1 P[3] 0.000447028
2 *261:X 0.000447028
3 P[2] P[3] 0
*RES
1 *261:X P[3] 11.55 
*END

*D_NET *13 0.000605223
*CONN
*P P[4] O
*I *262:X O *D sky130_fd_sc_hd__buf_2
*CAP
1 P[4] 0.000190734
2 *262:X 0.000190734
3 P[4] P[5] 9.25475e-05
4 P[4] *262:A 3.86607e-05
5 P[0] P[4] 9.25475e-05
*RES
1 *262:X P[4] 5.92503 
*END

*D_NET *14 0.000452655
*CONN
*P P[5] O
*I *263:X O *D sky130_fd_sc_hd__buf_2
*CAP
1 P[5] 0.000173929
2 *263:X 0.000173929
3 P[5] *263:A 1.22505e-05
4 P[4] P[5] 9.25475e-05
*RES
1 *263:X P[5] 4.90503 
*END

*D_NET *15 0.000465086
*CONN
*P P[6] O
*I *264:X O *D sky130_fd_sc_hd__buf_2
*CAP
1 P[6] 0.000232543
2 *264:X 0.000232543
*RES
1 *264:X P[6] 4.90503 
*END

*D_NET *16 0.000802039
*CONN
*P P[7] O
*I *265:X O *D sky130_fd_sc_hd__buf_2
*CAP
1 P[7] 0.000401019
2 *265:X 0.000401019
3 *253:A P[7] 0
*RES
1 *265:X P[7] 10.395 
*END

*D_NET *19 0.000328753
*CONN
*I *219:A1 I *D sky130_fd_sc_hd__a211o_1
*I *191:Y O *D sky130_fd_sc_hd__inv_2
*CAP
1 *219:A1 8.89322e-05
2 *191:Y 8.89322e-05
3 *219:A1 *216:C 5.16348e-05
4 *219:A1 *219:A2 9.50342e-06
5 *219:A1 *45:8 3.90266e-05
6 *219:A1 *72:14 3.23391e-05
7 *219:A1 *81:10 1.83847e-05
*RES
1 *191:Y *219:A1 9.03 
*END

*D_NET *20 0.000515024
*CONN
*I *222:A1 I *D sky130_fd_sc_hd__a211o_1
*I *192:Y O *D sky130_fd_sc_hd__inv_2
*CAP
1 *222:A1 6.34183e-05
2 *192:Y 6.34183e-05
3 *222:A1 *192:A 0
4 *222:A1 *222:B1 5.12969e-06
5 *222:A1 *222:C1 7.8718e-06
6 *222:A1 *50:12 0.000238403
7 *222:A1 *82:47 0.000136783
*RES
1 *192:Y *222:A1 5.735 
*END

*D_NET *21 0.000339921
*CONN
*I *212:A I *D sky130_fd_sc_hd__or4b_1
*I *193:Y O *D sky130_fd_sc_hd__inv_2
*CAP
1 *212:A 7.1826e-05
2 *193:Y 7.1826e-05
3 *212:A *212:C 6.15387e-05
4 *212:A *38:8 8.69583e-05
5 *212:A *85:61 4.77719e-05
*RES
1 *193:Y *212:A 5.045 
*END

*D_NET *22 0.00191629
*CONN
*I *222:A2 I *D sky130_fd_sc_hd__a211o_1
*I *199:A I *D sky130_fd_sc_hd__or2_1
*I *194:Y O *D sky130_fd_sc_hd__inv_2
*CAP
1 *222:A2 0.000159354
2 *199:A 0.000403398
3 *194:Y 0
4 *22:4 0.000562752
5 *199:A *196:C 7.79794e-05
6 *199:A *209:B 0.000162311
7 *199:A *24:25 0.000155928
8 *199:A *79:12 2.23485e-05
9 *199:A *79:14 6.02123e-05
10 *199:A *83:27 0
11 *222:A2 *209:B 0.000150653
12 *222:A2 *221:A2 0.000113797
13 *222:A2 *34:23 0
14 *222:A2 *82:47 4.75576e-05
*RES
1 *194:Y *22:4 1.6 
2 *22:4 *199:A 12.14 
3 *22:4 *222:A2 8.465 
*END

*D_NET *23 0.00147357
*CONN
*I *212:B I *D sky130_fd_sc_hd__or4b_1
*I *232:A1 I *D sky130_fd_sc_hd__a211o_1
*I *230:A2 I *D sky130_fd_sc_hd__a31oi_1
*I *195:Y O *D sky130_fd_sc_hd__inv_2
*CAP
1 *212:B 7.5244e-05
2 *232:A1 0
3 *230:A2 0.000258211
4 *195:Y 0
5 *23:10 0.000509739
6 *23:4 0.000326773
7 *212:B *85:36 4.57009e-05
8 *212:B *85:40 4.89312e-05
9 *230:A2 *230:A3 0
10 *230:A2 *230:B1 7.2911e-05
11 *230:A2 *232:B1 7.63204e-05
12 *230:A2 *84:66 9.29751e-06
13 *23:10 *232:B1 5.53249e-06
14 *23:10 *35:14 0
15 *23:10 *80:33 0
16 *23:10 *81:35 0
17 *23:10 *84:66 1.73877e-05
18 *23:10 *85:36 2.75229e-05
19 *23:10 *85:61 0
20 *253:A *230:A2 0
*RES
1 *195:Y *23:4 1.6 
2 *23:4 *23:10 5.87 
3 *23:10 *230:A2 7.65 
4 *23:10 *232:A1 3.6 
5 *23:4 *212:B 2.74 
*END

*D_NET *24 0.00172718
*CONN
*I *199:B I *D sky130_fd_sc_hd__or2_1
*I *201:A1 I *D sky130_fd_sc_hd__a21bo_1
*I *198:B1 I *D sky130_fd_sc_hd__o211a_1
*I *196:Y O *D sky130_fd_sc_hd__nand3_1
*CAP
1 *199:B 4.41472e-05
2 *201:A1 4.57691e-05
3 *198:B1 0.00018192
4 *196:Y 2.92365e-05
5 *24:25 0.000144213
6 *24:6 0.000265454
7 *198:B1 *196:A 1.91597e-05
8 *198:B1 *197:A2 4.06545e-05
9 *198:B1 *197:B1 2.75145e-05
10 *198:B1 *198:A2 3.26889e-05
11 *198:B1 *198:C1 4.99619e-05
12 *198:B1 *82:16 5.5626e-05
13 *199:B *201:A2 6.38806e-05
14 *199:B *79:83 0.00012657
15 *201:A1 *201:A2 0.00016063
16 *201:A1 *26:6 9.66021e-05
17 *201:A1 *83:25 1.61831e-05
18 *24:6 *196:A 1.34503e-05
19 *24:25 *79:12 0.000157588
20 *199:A *24:25 0.000155928
*RES
1 *196:Y *24:6 2.05 
2 *24:6 *198:B1 5.29 
3 *24:6 *24:25 5.89 
4 *24:25 *201:A1 3.43 
5 *24:25 *199:B 3.1 
*END

*D_NET *25 9.40065e-05
*CONN
*I *198:C1 I *D sky130_fd_sc_hd__o211a_1
*I *197:X O *D sky130_fd_sc_hd__a21o_1
*CAP
1 *198:C1 7.00326e-06
2 *197:X 7.00326e-06
3 *198:C1 *82:16 3.00381e-05
4 *198:B1 *198:C1 4.99619e-05
*RES
1 *197:X *198:C1 3.65 
*END

*D_NET *26 0.0016862
*CONN
*I *223:A I *D sky130_fd_sc_hd__xnor2_1
*I *220:A I *D sky130_fd_sc_hd__nor2_1
*I *201:B1_N I *D sky130_fd_sc_hd__a21bo_1
*I *199:X O *D sky130_fd_sc_hd__or2_1
*CAP
1 *223:A 0.000139945
2 *220:A 0.000117465
3 *201:B1_N 4.2996e-05
4 *199:X 0.0002015
5 *26:17 0.000291966
6 *26:6 0.000279052
7 *201:B1_N *83:25 5.36384e-06
8 *220:A *220:B 4.82919e-05
9 *220:A *224:B1_N 3.00381e-05
10 *223:A *223:B 0.00022418
11 *223:A *266:A 0
12 *223:A *45:8 3.09233e-05
13 *26:6 *83:25 1.17437e-05
14 *26:17 *266:A 0
15 *26:17 *45:8 9.37731e-05
16 P[1] *26:17 7.23602e-05
17 *201:A1 *26:6 9.66021e-05
*RES
1 *199:X *26:6 4.12 
2 *26:6 *201:B1_N 2.05 
3 *26:6 *26:17 3.125 
4 *26:17 *220:A 5.445 
5 *26:17 *223:A 6.705 
*END

*D_NET *27 0.000726686
*CONN
*I *201:A2 I *D sky130_fd_sc_hd__a21bo_1
*I *200:Y O *D sky130_fd_sc_hd__nand2_1
*CAP
1 *201:A2 8.74135e-05
2 *200:Y 8.74135e-05
3 *201:A2 *28:8 0.00026784
4 *201:A2 *79:83 1.34503e-05
5 *201:A2 *83:25 4.60584e-05
6 *199:B *201:A2 6.38806e-05
7 *201:A1 *201:A2 0.00016063
*RES
1 *200:Y *201:A2 6.41 
*END

*D_NET *28 0.00206976
*CONN
*I *203:A I *D sky130_fd_sc_hd__nand2_1
*I *204:A I *D sky130_fd_sc_hd__or2_1
*I *201:X O *D sky130_fd_sc_hd__a21bo_1
*CAP
1 *203:A 0
2 *204:A 7.12876e-05
3 *201:X 0.000401564
4 *28:8 0.000472852
5 *204:A *204:B 4.21773e-05
6 *204:A *205:A 9.47454e-05
7 *204:A *221:A1 4.86642e-05
8 *204:A *221:B1 4.82919e-05
9 *28:8 *203:B 2.68526e-05
10 *28:8 *221:A1 2.33708e-05
11 *28:8 *221:A2 2.49909e-05
12 *28:8 *221:B1 3.88174e-05
13 *28:8 *222:C1 8.50193e-05
14 *28:8 *29:42 0.000119715
15 *28:8 *83:25 0.000303575
16 *201:A2 *28:8 0.00026784
*RES
1 *201:X *28:8 10.255 
2 *28:8 *204:A 7.685 
3 *28:8 *203:A 1.6 
*END

*D_NET *29 0.00342512
*CONN
*I *204:B I *D sky130_fd_sc_hd__or2_1
*I *203:B I *D sky130_fd_sc_hd__nand2_1
*I *207:C I *D sky130_fd_sc_hd__and3_1
*I *212:D_N I *D sky130_fd_sc_hd__or4b_1
*I *202:Y O *D sky130_fd_sc_hd__nand2_1
*CAP
1 *204:B 7.92965e-05
2 *203:B 1.40724e-05
3 *207:C 5.3014e-05
4 *212:D_N 2.09559e-05
5 *202:Y 0.000182378
6 *29:42 0.000518642
7 *29:19 0.000675769
8 *29:6 0.000400815
9 *203:B *221:B1 4.66108e-05
10 *204:B *221:A1 4.86642e-05
11 *204:B *48:12 0
12 *207:C *193:A 7.40317e-05
13 *212:D_N *202:B 0
14 *29:6 *195:A 2.93678e-05
15 *29:6 *202:B 3.4687e-05
16 *29:6 *85:36 7.59904e-05
17 *29:19 *207:B 3.6227e-05
18 *29:19 *212:C 0.000156493
19 *29:19 *85:40 4.21621e-05
20 *29:42 *207:B 5.93314e-05
21 *29:42 *212:C 9.09587e-05
22 *29:42 *221:A1 0.000339554
23 *29:42 *221:A2 0
24 *29:42 *221:B1 0
25 *29:42 *37:10 0.00025736
26 *29:42 *48:12 0
27 *29:42 *81:10 0
28 *204:A *204:B 4.21773e-05
29 *28:8 *203:B 2.68526e-05
30 *28:8 *29:42 0.000119715
*RES
1 *202:Y *29:6 4.12 
2 *29:6 *212:D_N 1.96 
3 *29:6 *29:19 5.045 
4 *29:19 *207:C 4.2975 
5 *29:19 *29:42 12.79 
6 *29:42 *203:B 4.05 
7 *29:42 *204:B 5.235 
*END

*D_NET *30 0.000376301
*CONN
*I *205:A I *D sky130_fd_sc_hd__and2_1
*I *203:Y O *D sky130_fd_sc_hd__nand2_1
*CAP
1 *205:A 0.000106235
2 *203:Y 0.000106235
3 *205:A *31:8 4.89295e-05
4 *205:A *48:12 0
5 *205:A *53:8 2.01565e-05
6 *204:A *205:A 9.47454e-05
*RES
1 *203:Y *205:A 9.375 
*END

*D_NET *31 0.000777833
*CONN
*I *228:A I *D sky130_fd_sc_hd__nor2_1
*I *249:A I *D sky130_fd_sc_hd__and2_1
*I *205:B I *D sky130_fd_sc_hd__and2_1
*I *204:X O *D sky130_fd_sc_hd__or2_1
*CAP
1 *228:A 8.98185e-05
2 *249:A 0
3 *205:B 0
4 *204:X 4.96871e-05
5 *31:15 0.000135353
6 *31:8 9.52219e-05
7 *228:A *228:B 8.1512e-05
8 *228:A *249:B 9.42091e-06
9 *228:A *250:A 2.11921e-05
10 *228:A *250:B 3.00381e-05
11 *228:A *53:8 2.7441e-05
12 *31:8 *53:8 0.000123191
13 *31:15 *53:8 6.60272e-05
14 *205:A *31:8 4.89295e-05
*RES
1 *204:X *31:8 3.1 
2 *31:8 *205:B 1.6 
3 *31:8 *31:15 1.14 
4 *31:15 *249:A 1.6 
5 *31:15 *228:A 4.15 
*END

*D_NET *32 0.00255592
*CONN
*I *215:A I *D sky130_fd_sc_hd__xnor2_1
*I *214:A I *D sky130_fd_sc_hd__or2_1
*I *242:C I *D sky130_fd_sc_hd__and3_1
*I *206:Y O *D sky130_fd_sc_hd__nand2_1
*CAP
1 *215:A 0.0001702
2 *214:A 0.000159618
3 *242:C 0.000212393
4 *206:Y 0.000112953
5 *32:21 0.000436473
6 *32:8 0.000432001
7 *214:A *214:B 0.000153217
8 *214:A *39:8 8.65961e-05
9 *215:A *210:B 9.10587e-05
10 *215:A *215:B 7.26551e-05
11 *215:A *80:66 2.54744e-05
12 *215:A *81:29 8.68646e-05
13 *242:C *60:16 8.82102e-05
14 *242:C *66:12 4.76682e-05
15 *242:C *80:53 7.33942e-05
16 *242:C *81:29 3.67779e-05
17 *32:8 *38:8 0.000158175
18 *32:21 *81:29 0.00011219
*RES
1 *206:Y *32:8 5.085 
2 *32:8 *242:C 7.545 
3 *32:8 *32:21 2.4 
4 *32:21 *214:A 6.465 
5 *32:21 *215:A 7.395 
*END

*D_NET *33 0.000428911
*CONN
*I *213:A I *D sky130_fd_sc_hd__xor2_1
*I *207:X O *D sky130_fd_sc_hd__and3_1
*CAP
1 *213:A 0.000130061
2 *207:X 0.000130061
3 *213:A *193:A 8.23457e-05
4 *213:A *213:B 8.64421e-05
*RES
1 *207:X *213:A 5.645 
*END

*D_NET *34 0.00236966
*CONN
*I *211:S I *D sky130_fd_sc_hd__mux2_1
*I *222:B1 I *D sky130_fd_sc_hd__a211o_1
*I *209:B I *D sky130_fd_sc_hd__and2_1
*I *208:X O *D sky130_fd_sc_hd__and3_1
*CAP
1 *211:S 7.6395e-05
2 *222:B1 4.97825e-05
3 *209:B 0.000265344
4 *208:X 0
5 *34:23 0.000223853
6 *34:4 0.00036302
7 *209:B *194:A 0.000163204
8 *209:B *208:C 7.33942e-05
9 *209:B *221:A1 6.0795e-05
10 *209:B *81:14 2.9656e-05
11 *211:S *211:A0 0.000117777
12 *211:S *50:12 0.000153178
13 *211:S *83:55 0.00016077
14 *222:B1 *222:C1 4.69765e-05
15 *222:B1 *50:12 3.74448e-05
16 *222:B1 *83:55 0.000120777
17 *34:23 *221:A1 0.000109198
18 *199:A *209:B 0.000162311
19 *222:A1 *222:B1 5.12969e-06
20 *222:A2 *209:B 0.000150653
21 *222:A2 *34:23 0
*RES
1 *208:X *34:4 1.6 
2 *34:4 *209:B 7.36 
3 *34:4 *34:23 5.38 
4 *34:23 *222:B1 3.565 
5 *34:23 *211:S 4.48 
*END

*D_NET *35 0.00232636
*CONN
*I *233:A I *D sky130_fd_sc_hd__nand2_1
*I *234:A I *D sky130_fd_sc_hd__xnor2_1
*I *209:X O *D sky130_fd_sc_hd__and2_1
*CAP
1 *233:A 7.57123e-06
2 *234:A 0.0001577
3 *209:X 0.000709188
4 *35:14 0.000874459
5 *233:A *234:B 0
6 *233:A *235:A 1.37328e-05
7 *234:A *234:B 0.000171063
8 *234:A *59:8 4.60584e-05
9 *35:14 *216:A_N 0
10 *35:14 *235:A 0.000242924
11 *35:14 *243:A2 1.61831e-05
12 *35:14 *59:8 3.23663e-05
13 *35:14 *60:16 5.51158e-05
14 *35:14 *72:14 0
15 *35:14 *79:14 0
16 *35:14 *81:10 0
17 *23:10 *35:14 0
*RES
1 *209:X *35:14 16.16 
2 *35:14 *234:A 4.48 
3 *35:14 *233:A 1.96 
*END

*D_NET *36 0.000588862
*CONN
*I *211:A0 I *D sky130_fd_sc_hd__mux2_1
*I *210:Y O *D sky130_fd_sc_hd__nand2_1
*CAP
1 *211:A0 7.736e-05
2 *210:Y 7.736e-05
3 *211:A0 *210:A 0.000133415
4 *211:A0 *50:12 0.000134373
5 *211:A0 *83:55 4.85763e-05
6 *211:S *211:A0 0.000117777
*RES
1 *210:Y *211:A0 6.095 
*END

*D_NET *37 0.00169199
*CONN
*I *213:B I *D sky130_fd_sc_hd__xor2_1
*I *212:C I *D sky130_fd_sc_hd__or4b_1
*I *211:X O *D sky130_fd_sc_hd__mux2_1
*CAP
1 *213:B 4.40732e-05
2 *212:C 0.000150395
3 *211:X 0.000214019
4 *37:10 0.000408488
5 *212:C *193:A 0.00011686
6 *212:C *207:B 6.23541e-06
7 *212:C *80:66 0
8 *212:C *85:40 3.64998e-06
9 *212:C *85:61 1.31297e-05
10 *37:10 *83:55 8.23457e-05
11 *212:A *212:C 6.15387e-05
12 *213:A *213:B 8.64421e-05
13 *29:19 *212:C 0.000156493
14 *29:42 *212:C 9.09587e-05
15 *29:42 *37:10 0.00025736
*RES
1 *211:X *37:10 7.6875 
2 *37:10 *212:C 7.5675 
3 *37:10 *213:B 4.6275 
*END

*D_NET *38 0.00238834
*CONN
*I *236:A I *D sky130_fd_sc_hd__and3_1
*I *237:A I *D sky130_fd_sc_hd__nand3_1
*I *238:A1 I *D sky130_fd_sc_hd__a21oi_1
*I *212:X O *D sky130_fd_sc_hd__or4b_1
*CAP
1 *236:A 0.00023195
2 *237:A 0
3 *238:A1 1.85694e-05
4 *212:X 0.000444386
5 *38:21 0.000304489
6 *38:8 0.000535495
7 *236:A *236:B 0.000192855
8 *236:A *238:A2 0
9 *236:A *245:B1 3.40816e-06
10 *236:A *62:8 1.12578e-05
11 *238:A1 *238:A2 9.53428e-06
12 *38:8 *206:A 0.000121031
13 *38:8 *238:A2 1.61831e-05
14 *38:8 *62:8 0
15 *38:21 *237:C 4.82919e-05
16 *38:21 *238:A2 0.000110695
17 *38:21 *245:B1 0
18 *38:21 *62:8 1.70733e-05
19 *38:21 *63:6 7.79931e-05
20 *212:A *38:8 8.69583e-05
21 *32:8 *38:8 0.000158175
*RES
1 *212:X *38:8 8.965 
2 *38:8 *238:A1 1.96 
3 *38:8 *38:21 2.64 
4 *38:21 *237:A 1.6 
5 *38:21 *236:A 5.095 
*END

*D_NET *39 0.000834584
*CONN
*I *214:B I *D sky130_fd_sc_hd__or2_1
*I *215:B I *D sky130_fd_sc_hd__xnor2_1
*I *213:X O *D sky130_fd_sc_hd__xor2_1
*CAP
1 *214:B 5.81953e-05
2 *215:B 9.36523e-05
3 *213:X 8.22091e-05
4 *39:8 0.000234057
5 *215:B *210:B 5.4003e-05
6 *214:A *214:B 0.000153217
7 *214:A *39:8 8.65961e-05
8 *215:A *215:B 7.26551e-05
*RES
1 *213:X *39:8 3.1 
2 *39:8 *215:B 7.745 
3 *39:8 *214:B 3.085 
*END

*D_NET *40 0.00201741
*CONN
*I *237:B I *D sky130_fd_sc_hd__nand3_1
*I *238:A2 I *D sky130_fd_sc_hd__a21oi_1
*I *236:B I *D sky130_fd_sc_hd__and3_1
*I *214:X O *D sky130_fd_sc_hd__or2_1
*CAP
1 *237:B 0
2 *238:A2 0.000136368
3 *236:B 0.000256272
4 *214:X 0.000223322
5 *40:33 0.000136368
6 *40:10 0.000479594
7 *236:B *236:C 1.82343e-05
8 *236:B *239:A 2.30292e-05
9 *236:B *245:A1 3.54245e-05
10 *236:B *245:B1 9.53428e-06
11 *236:B *246:C1 6.88004e-05
12 *236:B *51:10 1.93765e-05
13 *236:B *62:8 4.66742e-05
14 *238:A2 *237:C 4.82919e-05
15 *40:10 *236:C 0.000155038
16 *40:10 *51:10 3.18137e-05
17 *236:A *236:B 0.000192855
18 *236:A *238:A2 0
19 *238:A1 *238:A2 9.53428e-06
20 *38:8 *238:A2 1.61831e-05
21 *38:21 *238:A2 0.000110695
*RES
1 *214:X *40:10 6.9 
2 *40:10 *236:B 9.06 
3 *40:10 *40:33 2 
4 *40:33 *238:A2 4.135 
5 *40:33 *237:B 1.6 
*END

*D_NET *41 0.000702204
*CONN
*I *225:A_N I *D sky130_fd_sc_hd__and2b_1
*I *226:A I *D sky130_fd_sc_hd__xnor2_1
*I *215:Y O *D sky130_fd_sc_hd__xnor2_1
*CAP
1 *225:A_N 7.94447e-05
2 *226:A 0
3 *215:Y 0.00019309
4 *41:12 0.000272535
5 *225:A_N *225:B 6.05513e-05
6 *225:A_N *240:A2 4.82919e-05
7 *225:A_N *52:10 4.82919e-05
8 *41:12 *210:B 0
9 *41:12 *240:A2 0
10 *41:12 *51:10 0
*RES
1 *215:Y *41:12 8.12 
2 *41:12 *226:A 1.6 
3 *41:12 *225:A_N 3.43 
*END

*D_NET *42 0.000255485
*CONN
*I *219:A2 I *D sky130_fd_sc_hd__a211o_1
*I *216:Y O *D sky130_fd_sc_hd__nand3b_1
*CAP
1 *219:A2 6.59935e-05
2 *216:Y 6.59935e-05
3 *219:A2 *216:C 6.73424e-05
4 *219:A2 *43:12 4.11194e-05
5 *219:A2 *45:8 5.53249e-06
6 *219:A2 *84:14 0
7 *219:A1 *219:A2 9.50342e-06
*RES
1 *216:Y *219:A2 8.835 
*END

*D_NET *43 0.00187976
*CONN
*I *219:B1 I *D sky130_fd_sc_hd__a211o_1
*I *233:B I *D sky130_fd_sc_hd__nand2_1
*I *234:B I *D sky130_fd_sc_hd__xnor2_1
*I *217:X O *D sky130_fd_sc_hd__and4_1
*CAP
1 *219:B1 7.20798e-05
2 *233:B 0
3 *234:B 6.82262e-05
4 *217:X 0.000105521
5 *43:12 0.000323156
6 *43:6 0.000432531
7 *219:B1 *202:B 0.000132415
8 *219:B1 *217:A 0.000222128
9 *219:B1 *219:C1 1.85674e-05
10 *219:B1 *72:23 1.08758e-05
11 *234:B *59:8 5.39673e-05
12 *43:6 *202:B 9.4087e-05
13 *43:6 *217:A 4.82863e-05
14 *43:6 *85:14 8.57321e-05
15 *43:12 *216:C 0
16 *43:12 *60:16 0
17 *43:12 *84:10 0
18 *43:12 *84:14 0
19 *219:A2 *43:12 4.11194e-05
20 *233:A *234:B 0
21 *234:A *234:B 0.000171063
*RES
1 *217:X *43:6 4.12 
2 *43:6 *43:12 7.93 
3 *43:12 *234:B 3.445 
4 *43:12 *233:B 1.6 
5 *43:6 *219:B1 4.135 
*END

*D_NET *44 0.000146303
*CONN
*I *219:C1 I *D sky130_fd_sc_hd__a211o_1
*I *218:X O *D sky130_fd_sc_hd__and2b_1
*CAP
1 *219:C1 1.45843e-05
2 *218:X 1.45843e-05
3 *219:C1 *202:A 1.85674e-05
4 *219:C1 *202:B 4.99619e-05
5 *219:C1 *72:23 3.00381e-05
6 *219:B1 *219:C1 1.85674e-05
*RES
1 *218:X *219:C1 4.01 
*END

*D_NET *45 0.0020838
*CONN
*I *223:B I *D sky130_fd_sc_hd__xnor2_1
*I *220:B I *D sky130_fd_sc_hd__nor2_1
*I *219:X O *D sky130_fd_sc_hd__a211o_1
*CAP
1 *223:B 0.000138329
2 *220:B 2.11983e-05
3 *219:X 0.000544487
4 *45:8 0.000704014
5 *223:B *79:10 6.97034e-05
6 *45:8 *72:10 0
7 *45:8 *72:14 0
8 *45:8 *72:48 0
9 *45:8 *79:10 0
10 *45:8 *79:12 0
11 *45:8 *79:14 0
12 *45:8 *84:14 0
13 P[1] *45:8 0.000164336
14 *219:A1 *45:8 3.90266e-05
15 *219:A2 *45:8 5.53249e-06
16 *220:A *220:B 4.82919e-05
17 *223:A *223:B 0.00022418
18 *223:A *45:8 3.09233e-05
19 *26:17 *45:8 9.37731e-05
*RES
1 *219:X *45:8 13.65 
2 *45:8 *220:B 4.05 
3 *45:8 *223:B 6.885 
*END

*D_NET *46 0.000407861
*CONN
*I *224:B1_N I *D sky130_fd_sc_hd__o21bai_1
*I *220:Y O *D sky130_fd_sc_hd__nor2_1
*CAP
1 *224:B1_N 0.000188911
2 *220:Y 0.000188911
3 *220:A *224:B1_N 3.00381e-05
*RES
1 *220:Y *224:B1_N 6.065 
*END

*D_NET *47 0.000755801
*CONN
*I *222:C1 I *D sky130_fd_sc_hd__a211o_1
*I *221:Y O *D sky130_fd_sc_hd__a21oi_1
*CAP
1 *222:C1 0.000211599
2 *221:Y 0.000211599
3 *222:C1 *221:A2 1.97761e-05
4 *222:C1 *48:12 7.23602e-05
5 *222:C1 *50:12 8.52883e-05
6 *222:C1 *82:47 5.83121e-06
7 *222:C1 *83:55 9.47972e-06
8 *222:A1 *222:C1 7.8718e-06
9 *222:B1 *222:C1 4.69765e-05
10 *28:8 *222:C1 8.50193e-05
*RES
1 *221:Y *222:C1 11.085 
*END

*D_NET *48 0.00109194
*CONN
*I *227:A I *D sky130_fd_sc_hd__xnor2_1
*I *224:A1 I *D sky130_fd_sc_hd__o21bai_1
*I *222:X O *D sky130_fd_sc_hd__a211o_1
*CAP
1 *227:A 0
2 *224:A1 8.7623e-05
3 *222:X 0.000228087
4 *48:12 0.00031571
5 *224:A1 *227:B 0.000164874
6 *48:12 *221:A2 0.000137578
7 *48:12 *49:12 0
8 *48:12 *50:12 8.57024e-05
9 *204:B *48:12 0
10 *205:A *48:12 0
11 *222:C1 *48:12 7.23602e-05
12 *29:42 *48:12 0
*RES
1 *222:X *48:12 9.815 
2 *48:12 *224:A1 3.43 
3 *48:12 *227:A 1.6 
*END

*D_NET *49 0.00133005
*CONN
*I *227:B I *D sky130_fd_sc_hd__xnor2_1
*I *224:A2 I *D sky130_fd_sc_hd__o21bai_1
*I *223:Y O *D sky130_fd_sc_hd__xnor2_1
*CAP
1 *227:B 0.000129293
2 *224:A2 0
3 *223:Y 0.000371694
4 *49:12 0.000500987
5 *49:12 *79:10 0.000163199
6 *224:A1 *227:B 0.000164874
7 *48:12 *49:12 0
*RES
1 *223:Y *49:12 11.39 
2 *49:12 *224:A2 1.6 
3 *49:12 *227:B 4.135 
*END

*D_NET *50 0.00354491
*CONN
*I *225:B I *D sky130_fd_sc_hd__and2b_1
*I *226:B I *D sky130_fd_sc_hd__xnor2_1
*I *224:Y O *D sky130_fd_sc_hd__o21bai_1
*CAP
1 *225:B 0.000286972
2 *226:B 2.08101e-05
3 *224:Y 0.000831084
4 *50:12 0.00113887
5 *225:B *52:10 9.66106e-05
6 *226:B *52:10 0
7 *50:12 *196:C 0.000159262
8 *50:12 *200:B 6.38291e-05
9 *50:12 *79:10 0
10 *50:12 *79:12 0
11 *50:12 *82:32 3.31103e-05
12 *50:12 *82:47 2.56558e-05
13 *50:12 *83:27 9.37731e-05
14 *211:A0 *50:12 0.000134373
15 *211:S *50:12 0.000153178
16 *222:A1 *50:12 0.000238403
17 *222:B1 *50:12 3.74448e-05
18 *222:C1 *50:12 8.52883e-05
19 *225:A_N *225:B 6.05513e-05
20 *48:12 *50:12 8.57024e-05
*RES
1 *224:Y *50:12 20.6 
2 *50:12 *226:B 1.96 
3 *50:12 *225:B 5.53 
*END

*D_NET *51 0.00217553
*CONN
*I *240:B1 I *D sky130_fd_sc_hd__a21oi_1
*I *245:A1 I *D sky130_fd_sc_hd__o21a_1
*I *246:A1 I *D sky130_fd_sc_hd__o211a_1
*I *225:X O *D sky130_fd_sc_hd__and2b_1
*CAP
1 *240:B1 0.000130374
2 *245:A1 6.34715e-05
3 *246:A1 4.00465e-05
4 *225:X 0
5 *51:10 0.000455717
6 *51:4 0.000482572
7 *240:B1 *240:A2 5.39673e-05
8 *240:B1 *241:B 1.4399e-05
9 *240:B1 *52:10 1.61831e-05
10 *245:A1 *245:A2 8.49205e-05
11 *245:A1 *245:B1 4.00541e-06
12 *245:A1 *246:C1 7.40446e-05
13 *245:A1 *62:8 4.66108e-05
14 *245:A1 *63:6 4.66108e-05
15 *246:A1 *239:B 2.07184e-05
16 *246:A1 *246:A2 0.000141592
17 *246:A1 *247:B 0.000163985
18 *51:10 *239:B 0.000201407
19 *51:10 *240:A2 4.82919e-05
20 *51:10 *241:A 0
21 *51:10 *241:B 0
22 *51:10 *60:16 0
23 *236:B *245:A1 3.54245e-05
24 *236:B *51:10 1.93765e-05
25 *40:10 *51:10 3.18137e-05
26 *41:12 *51:10 0
*RES
1 *225:X *51:4 1.6 
2 *51:4 *51:10 8.42 
3 *51:10 *246:A1 5.49 
4 *51:10 *245:A1 5.445 
5 *51:4 *240:B1 3.445 
*END

*D_NET *52 0.001314
*CONN
*I *240:A1 I *D sky130_fd_sc_hd__a21oi_1
*I *229:A I *D sky130_fd_sc_hd__xor2_1
*I *226:Y O *D sky130_fd_sc_hd__xnor2_1
*CAP
1 *240:A1 0
2 *229:A 0.000340203
3 *226:Y 0.000135746
4 *52:10 0.00047595
5 *229:A *240:A2 0
6 *229:A *241:B 5.33085e-05
7 *229:A *263:A 0
8 *52:10 *240:A2 0.00014771
9 *225:A_N *52:10 4.82919e-05
10 *225:B *52:10 9.66106e-05
11 *226:B *52:10 0
12 *240:B1 *52:10 1.61831e-05
*RES
1 *226:Y *52:10 5.185 
2 *52:10 *229:A 10.925 
3 *52:10 *240:A1 1.6 
*END

*D_NET *53 0.00140506
*CONN
*I *228:B I *D sky130_fd_sc_hd__nor2_1
*I *249:B I *D sky130_fd_sc_hd__and2_1
*I *227:Y O *D sky130_fd_sc_hd__xnor2_1
*CAP
1 *228:B 0.000101925
2 *249:B 1.41699e-05
3 *227:Y 0.000401911
4 *53:8 0.000518007
5 *228:B *250:A 1.12578e-05
6 *228:B *54:21 3.00381e-05
7 *205:A *53:8 2.01565e-05
8 *228:A *228:B 8.1512e-05
9 *228:A *249:B 9.42091e-06
10 *228:A *53:8 2.7441e-05
11 *31:8 *53:8 0.000123191
12 *31:15 *53:8 6.60272e-05
*RES
1 *227:Y *53:8 6.55 
2 *53:8 *249:B 1.96 
3 *53:8 *228:B 3.79 
*END

*D_NET *54 0.00224157
*CONN
*I *229:B I *D sky130_fd_sc_hd__xor2_1
*I *240:A2 I *D sky130_fd_sc_hd__a21oi_1
*I *250:A I *D sky130_fd_sc_hd__nor2_1
*I *228:Y O *D sky130_fd_sc_hd__nor2_1
*CAP
1 *229:B 9.81219e-05
2 *240:A2 0.000425387
3 *250:A 0.000150846
4 *228:Y 0
5 *54:21 0.000750081
6 *54:4 0.000377418
7 *250:A *250:B 7.89689e-05
8 *225:A_N *240:A2 4.82919e-05
9 *228:A *250:A 2.11921e-05
10 *228:B *250:A 1.12578e-05
11 *228:B *54:21 3.00381e-05
12 *229:A *240:A2 0
13 *240:B1 *240:A2 5.39673e-05
14 *41:12 *240:A2 0
15 *51:10 *240:A2 4.82919e-05
16 *52:10 *240:A2 0.00014771
*RES
1 *228:Y *54:4 1.6 
2 *54:4 *250:A 8.3 
3 *54:4 *54:21 3.555 
4 *54:21 *240:A2 13.175 
5 *54:21 *229:B 3.085 
*END

*D_NET *55 0.000490517
*CONN
*I *232:B1 I *D sky130_fd_sc_hd__a211o_1
*I *230:Y O *D sky130_fd_sc_hd__a31oi_1
*CAP
1 *232:B1 0.000107109
2 *230:Y 0.000107109
3 *232:B1 *84:49 4.35432e-05
4 *232:B1 *84:66 0.000150903
5 *230:A2 *232:B1 7.63204e-05
6 *23:10 *232:B1 5.53249e-06
*RES
1 *230:Y *232:B1 9.63 
*END

*D_NET *56 0.000671416
*CONN
*I *248:C1 I *D sky130_fd_sc_hd__a211o_1
*I *232:C1 I *D sky130_fd_sc_hd__a211o_1
*I *231:X O *D sky130_fd_sc_hd__and4_1
*CAP
1 *248:C1 7.46723e-05
2 *232:C1 2.73742e-05
3 *231:X 0
4 *56:4 0.000102046
5 *232:C1 *232:A2 4.77757e-05
6 *232:C1 *67:10 2.01565e-05
7 *248:C1 *206:A 1.41165e-05
8 *248:C1 *232:A2 4.40028e-05
9 *248:C1 *248:B1 9.13949e-06
10 *248:C1 *67:10 0.000275587
11 *248:C1 *84:66 5.6545e-05
*RES
1 *231:X *56:4 1.6 
2 *56:4 *232:C1 2.41 
3 *56:4 *248:C1 4.48 
*END

*D_NET *57 0.000892837
*CONN
*I *235:A I *D sky130_fd_sc_hd__xnor2_1
*I *243:A1 I *D sky130_fd_sc_hd__o21ai_1
*I *232:X O *D sky130_fd_sc_hd__a211o_1
*CAP
1 *235:A 0.000105821
2 *243:A1 0
3 *232:X 4.67744e-05
4 *57:6 0.000152596
5 *235:A *232:A2 0
6 *235:A *243:A2 0.000243635
7 *235:A *67:10 1.12578e-05
8 *57:6 *67:10 7.60965e-05
9 *233:A *235:A 1.37328e-05
10 *35:14 *235:A 0.000242924
*RES
1 *232:X *57:6 2.74 
2 *57:6 *243:A1 1.6 
3 *57:6 *235:A 5.185 
*END

*D_NET *58 0.000684037
*CONN
*I *243:B1 I *D sky130_fd_sc_hd__o21ai_1
*I *233:Y O *D sky130_fd_sc_hd__nand2_1
*CAP
1 *243:B1 0.000182447
2 *233:Y 0.000182447
3 *243:B1 *243:A2 0.000192573
4 *243:B1 *59:8 0.00012657
*RES
1 *233:Y *243:B1 6.77 
*END

*D_NET *59 0.00102585
*CONN
*I *243:A2 I *D sky130_fd_sc_hd__o21ai_1
*I *235:B I *D sky130_fd_sc_hd__xnor2_1
*I *234:Y O *D sky130_fd_sc_hd__xnor2_1
*CAP
1 *243:A2 7.51439e-05
2 *235:B 0
3 *234:Y 6.70838e-05
4 *59:8 0.000142228
5 *243:A2 *67:10 3.00381e-05
6 *234:A *59:8 4.60584e-05
7 *234:B *59:8 5.39673e-05
8 *235:A *243:A2 0.000243635
9 *243:B1 *243:A2 0.000192573
10 *243:B1 *59:8 0.00012657
11 *35:14 *243:A2 1.61831e-05
12 *35:14 *59:8 3.23663e-05
*RES
1 *234:Y *59:8 3.79 
2 *59:8 *235:B 1.6 
3 *59:8 *243:A2 4.93 
*END

*D_NET *60 0.00463465
*CONN