*SPEF "ieee 1481-1999"
*DESIGN "mult4_SARSA_RUIDO_e9_SARSA_RUIDO_e9_SarsaNada_e6_SARSA_RUIDO_e9"
*DATE "18:39:42 Tuesday September 16, 2025"
*VENDOR "The OpenROAD Project"
*PROGRAM "OpenROAD"
*VERSION "edf00dff99f6c40d67a30c0e22a8191c5d2ed9d6"
*DESIGN_FLOW "NAME_SCOPE LOCAL" "PIN_CAP NONE"
*DIVIDER /
*DELIMITER :
*BUS_DELIMITER []
*T_UNIT 1 NS
*C_UNIT 1 PF
*R_UNIT 1 OHM
*L_UNIT 1 HENRY

*NAME_MAP
*1 A[0]
*2 A[1]
*3 A[2]
*4 A[3]
*5 B[0]
*6 B[1]
*7 B[2]
*8 B[3]
*9 P[0]
*10 P[1]
*11 P[2]
*12 P[3]
*13 P[4]
*14 P[5]
*15 P[6]
*16 P[7]
*19 _000_
*20 _001_
*21 _002_
*22 _003_
*23 _004_
*24 _005_
*25 _006_
*26 _007_
*27 _008_
*28 _009_
*29 _010_
*30 _011_
*31 _012_
*32 _013_
*33 _014_
*34 _015_
*35 _016_
*36 _017_
*37 _018_
*38 _019_
*39 _020_
*40 _021_
*41 _022_
*42 _023_
*43 _024_
*44 _025_
*45 _026_
*46 _027_
*47 _028_
*48 _029_
*49 _030_
*50 _031_
*51 _032_
*52 _033_
*53 _034_
*54 _035_
*55 _036_
*56 _037_
*57 _038_
*58 _039_
*59 _040_
*60 _041_
*61 _042_
*62 _043_
*63 _044_
*64 _045_
*65 _046_
*66 _047_
*67 net1
*68 net10
*69 net11
*70 net12
*71 net13
*72 net14
*73 net15
*74 net16
*75 net17
*76 net2
*77 net3
*78 net4
*79 net5
*80 net6
*81 net7
*82 net8
*83 net9
*84 FILLER_0_15
*85 FILLER_0_23
*86 FILLER_0_29
*87 FILLER_0_3
*88 FILLER_0_34
*89 FILLER_0_57
*90 FILLER_0_72
*91 FILLER_0_80
*92 FILLER_1_11
*93 FILLER_1_20
*94 FILLER_1_26
*95 FILLER_1_3
*96 FILLER_1_44
*97 FILLER_1_64
*98 FILLER_1_76
*99 FILLER_2_21
*100 FILLER_2_27
*101 FILLER_2_29
*102 FILLER_2_3
*103 FILLER_2_41
*104 FILLER_2_53
*105 FILLER_2_68
*106 FILLER_2_9
*107 FILLER_3_11
*108 FILLER_3_23
*109 FILLER_3_3
*110 FILLER_3_55
*111 FILLER_3_70
*112 FILLER_3_78
*113 FILLER_4_15
*114 FILLER_4_27
*115 FILLER_4_29
*116 FILLER_4_3
*117 FILLER_4_44
*118 FILLER_4_56
*119 FILLER_5_15
*120 FILLER_5_27
*121 FILLER_5_3
*122 FILLER_5_39
*123 FILLER_5_54
*124 FILLER_5_57
*125 FILLER_5_65
*126 FILLER_6_25
*127 FILLER_6_3
*128 FILLER_6_43
*129 FILLER_6_55
*130 FILLER_6_66
*131 FILLER_6_75
*132 FILLER_6_9
*133 FILLER_7_15
*134 FILLER_7_27
*135 FILLER_7_3
*136 FILLER_7_33
*137 FILLER_7_45
*138 FILLER_7_55
*139 FILLER_7_60
*140 FILLER_7_66
*141 FILLER_7_78
*142 FILLER_7_9
*143 FILLER_8_11
*144 FILLER_8_16
*145 FILLER_8_25
*146 FILLER_8_3
*147 FILLER_8_44
*148 FILLER_8_56
*149 FILLER_8_63
*150 FILLER_8_69
*151 FILLER_8_77
*152 FILLER_9_19
*153 FILLER_9_23
*154 FILLER_9_32
*155 FILLER_9_44
*156 FILLER_9_48
*157 FILLER_9_7
*158 FILLER_9_70
*159 FILLER_9_78
*160 PHY_EDGE_ROW_0_Left_10
*161 PHY_EDGE_ROW_0_Right_0
*162 PHY_EDGE_ROW_1_Left_11
*163 PHY_EDGE_ROW_1_Right_1
*164 PHY_EDGE_ROW_2_Left_12
*165 PHY_EDGE_ROW_2_Right_2
*166 PHY_EDGE_ROW_3_Left_13
*167 PHY_EDGE_ROW_3_Right_3
*168 PHY_EDGE_ROW_4_Left_14
*169 PHY_EDGE_ROW_4_Right_4
*170 PHY_EDGE_ROW_5_Left_15
*171 PHY_EDGE_ROW_5_Right_5
*172 PHY_EDGE_ROW_6_Left_16
*173 PHY_EDGE_ROW_6_Right_6
*174 PHY_EDGE_ROW_7_Left_17
*175 PHY_EDGE_ROW_7_Right_7
*176 PHY_EDGE_ROW_8_Left_18
*177 PHY_EDGE_ROW_8_Right_8
*178 PHY_EDGE_ROW_9_Left_19
*179 PHY_EDGE_ROW_9_Right_9
*180 TAP_TAPCELL_ROW_0_20
*181 TAP_TAPCELL_ROW_0_21
*182 TAP_TAPCELL_ROW_1_22
*183 TAP_TAPCELL_ROW_2_23
*184 TAP_TAPCELL_ROW_3_24
*185 TAP_TAPCELL_ROW_4_25
*186 TAP_TAPCELL_ROW_5_26
*187 TAP_TAPCELL_ROW_6_27
*188 TAP_TAPCELL_ROW_7_28
*189 TAP_TAPCELL_ROW_8_29
*190 TAP_TAPCELL_ROW_9_30
*191 TAP_TAPCELL_ROW_9_31
*192 _048_
*193 _049_
*194 _050_
*195 _051_
*196 _052_
*197 _053_
*198 _054_
*199 _055_
*200 _056_
*201 _057_
*202 _058_
*203 _059_
*204 _060_
*205 _061_
*206 _062_
*207 _063_
*208 _064_
*209 _065_
*210 _066_
*211 _067_
*212 _068_
*213 _069_
*214 _070_
*215 _071_
*216 _072_
*217 _073_
*218 _074_
*219 _075_
*220 _076_
*221 _077_
*222 _078_
*223 _079_
*224 _080_
*225 _081_
*226 _082_
*227 _083_
*228 _084_
*229 _085_
*230 _086_
*231 _087_
*232 _088_
*233 _089_
*234 _090_
*235 _091_
*236 _092_
*237 _093_
*238 _094_
*239 _095_
*240 _096_
*241 _097_
*242 _098_
*243 _099_
*244 _100_
*245 _101_
*246 _102_
*247 _103_
*248 input1
*249 input2
*250 input3
*251 input4
*252 input5
*253 input6
*254 input7
*255 input8
*256 max_cap17
*257 output10
*258 output11
*259 output12
*260 output13
*261 output14
*262 output15
*263 output16
*264 output9

*PORTS
A[0] I
A[1] I
A[2] I
A[3] I
B[0] I
B[1] I
B[2] I
B[3] I
P[0] O
P[1] O
P[2] O
P[3] O
P[4] O
P[5] O
P[6] O
P[7] O

*D_NET *1 0.000845225
*CONN
*P A[0] I
*I *248:A I *D sky130_fd_sc_hd__clkbuf_1
*CAP
1 A[0] 0.000422612
2 *248:A 0.000422612
3 *248:A P[0] 0
4 *248:A P[3] 0
5 *248:A *259:A 0
*RES
1 A[0] *248:A 21.8357 
*END

*D_NET *2 0.00173007
*CONN
*P A[1] I
*I *249:A I *D sky130_fd_sc_hd__buf_1
*CAP
1 A[1] 0.000511201
2 *249:A 0.000511201
3 *249:A P[1] 0
4 *249:A *198:B1 0.000244152
5 *249:A *253:A 0
6 *249:A *257:A 0.000270244
7 *249:A *21:10 9.54798e-06
8 *249:A *45:14 0.00018372
*RES
1 A[1] *249:A 25.8 
*END

*D_NET *3 0.000436542
*CONN
*P A[2] I
*I *250:A I *D sky130_fd_sc_hd__dlymetal6s2s_1
*CAP
1 A[2] 0.000137096
2 *250:A 0.000137096
3 *250:A P[2] 7.66163e-05
4 *250:A *232:D 0
5 *250:A *251:A 8.57347e-05
*RES
1 A[2] *250:A 18.1229 
*END

*D_NET *4 0.000641579
*CONN
*P A[3] I
*I *251:A I *D sky130_fd_sc_hd__dlymetal6s2s_1
*CAP
1 A[3] 0.000236341
2 *251:A 0.000236341
3 *251:A *232:D 0
4 *251:A *254:A 8.31618e-05
5 *250:A *251:A 8.57347e-05
*RES
1 A[3] *251:A 19.9443 
*END

*D_NET *5 0.00116993
*CONN
*P B[0] I
*I *252:A I *D sky130_fd_sc_hd__buf_1
*CAP
1 B[0] 0.000504118
2 *252:A 0.000504118
3 *252:A *202:A 0.000106467
4 *252:A *253:A 5.52302e-05
*RES
1 B[0] *252:A 23.8893 
*END

*D_NET *6 0.0013349
*CONN
*P B[1] I
*I *253:A I *D sky130_fd_sc_hd__clkbuf_2
*CAP
1 B[1] 0.000623581
2 *253:A 0.000623581
3 *253:A *199:B 1.03968e-05
4 *253:A *202:A 1.15172e-05
5 *253:A *23:6 1.05947e-05
6 *249:A *253:A 0
7 *252:A *253:A 5.52302e-05
*RES
1 B[1] *253:A 24.6571 
*END

*D_NET *7 0.000620191
*CONN
*P B[2] I
*I *254:A I *D sky130_fd_sc_hd__buf_1
*CAP
1 B[2] 0.000226934
2 *254:A 0.000226934
3 *254:A *232:D 0
4 *254:A *255:A 8.31618e-05
5 *251:A *254:A 8.31618e-05
*RES
1 B[2] *254:A 19.6407 
*END

*D_NET *8 0.000527278
*CONN
*P B[3] I
*I *255:A I *D sky130_fd_sc_hd__clkbuf_2
*CAP
1 B[3] 0.000222058
2 *255:A 0.000222058
3 *255:A *233:B 0
4 *254:A *255:A 8.31618e-05
*RES
1 B[3] *255:A 18.4985 
*END

*D_NET *9 0.000877439
*CONN
*P P[0] O
*I *264:X O *D sky130_fd_sc_hd__buf_2
*CAP
1 P[0] 0.000438719
2 *264:X 0.000438719
3 P[0] P[1] 0
4 *248:A P[0] 0
*RES
1 *264:X P[0] 21.6393 
*END

*D_NET *10 0.00173086
*CONN
*P P[1] O
*I *257:X O *D sky130_fd_sc_hd__buf_2
*CAP
1 P[1] 0.000615821
2 *257:X 0.000615821
3 P[1] *198:A1 5.48715e-05
4 P[1] *198:A3 0.000180777
5 P[1] *198:B1 1.39726e-05
6 P[1] *19:12 5.63882e-05
7 P[1] *23:6 0.000139907
8 P[1] *80:60 5.33005e-05
9 P[0] P[1] 0
10 *249:A P[1] 0
*RES
1 *257:X P[1] 26.3893 
*END

*D_NET *11 0.000497083
*CONN
*P P[2] O
*I *258:X O *D sky130_fd_sc_hd__buf_2
*CAP
1 P[2] 0.000210234
2 *258:X 0.000210234
3 P[2] *202:A 0
4 *250:A P[2] 7.66163e-05
*RES
1 *258:X P[2] 18.1949 
*END

*D_NET *12 0.000950737
*CONN
*P P[3] O
*I *259:X O *D sky130_fd_sc_hd__buf_2
*CAP
1 P[3] 0.000475368
2 *259:X 0.000475368
3 *248:A P[3] 0
*RES
1 *259:X P[3] 22.05 
*END

*D_NET *13 0.00063751
*CONN
*P P[4] O
*I *260:X O *D sky130_fd_sc_hd__buf_2
*CAP
1 P[4] 0.000289142
2 *260:X 0.000289142
3 P[4] *260:A 5.92267e-05
*RES
1 *260:X P[4] 19.4092 
*END

*D_NET *14 0.000911701
*CONN
*P P[5] O
*I *261:X O *D sky130_fd_sc_hd__buf_2
*CAP
1 P[5] 0.00045585
2 *261:X 0.00045585
*RES
1 *261:X P[5] 22.8536 
*END

*D_NET *15 0.00145778
*CONN
*P P[6] O
*I *262:X O *D sky130_fd_sc_hd__buf_2
*CAP
1 P[6] 0.000636285
2 *262:X 0.000636285
3 P[6] P[7] 0
4 P[6] *243:A 0
5 P[6] *243:B 9.27685e-05
6 P[6] *246:B1 0
7 P[6] *262:A 9.24395e-05
*RES
1 *262:X P[6] 27.2107 
*END

*D_NET *16 0.00157603
*CONN
*P P[7] O
*I *263:X O *D sky130_fd_sc_hd__buf_2
*CAP
1 P[7] 0.000556539
2 *263:X 0.000556539
3 P[7] *246:B1 0.000274387
4 P[7] *56:16 8.32171e-05
5 P[7] *62:12 0.000105347
6 P[6] P[7] 0
*RES
1 *263:X P[7] 26.8 
*END

*D_NET *19 0.00175671
*CONN
*I *197:C I *D sky130_fd_sc_hd__and4_1
*I *198:A3 I *D sky130_fd_sc_hd__a31o_1
*I *193:A I *D sky130_fd_sc_hd__inv_2
*I *192:Y O *D sky130_fd_sc_hd__nand2_1
*CAP
1 *197:C 0.000157567
2 *198:A3 9.26105e-05
3 *193:A 0
4 *192:Y 3.98109e-05
5 *19:12 0.000302887
6 *19:6 0.000407654
7 *197:C *257:A 0.000212147
8 *198:A3 *198:B1 8.61157e-05
9 *198:A3 *80:60 1.98839e-05
10 *19:6 *257:A 5.49489e-05
11 *19:12 *192:A 2.06112e-05
12 *19:12 *198:A1 1.08847e-05
13 *19:12 *76:27 5.20232e-05
14 *19:12 *80:37 1.7135e-05
15 *19:12 *80:39 4.52652e-05
16 *19:12 *80:60 0
17 P[1] *198:A3 0.000180777
18 P[1] *19:12 5.63882e-05
*RES
1 *192:Y *19:6 9.83571 
2 *19:6 *19:12 12.4643 
3 *19:12 *193:A 9.3 
4 *19:12 *198:A3 11.9071 
5 *19:6 *197:C 11.4786 
*END

*D_NET *20 0.00143436
*CONN
*I *216:B1_N I *D sky130_fd_sc_hd__o21bai_1
*I *213:C_N I *D sky130_fd_sc_hd__or3b_1
*I *195:A_N I *D sky130_fd_sc_hd__and3b_1
*I *194:X O *D sky130_fd_sc_hd__and4_1
*CAP
1 *216:B1_N 1.27355e-05
2 *213:C_N 2.12483e-05
3 *195:A_N 7.63867e-05
4 *194:X 1.7082e-05
5 *20:21 0.000331363
6 *20:6 0.000390848
7 *195:A_N *195:C 5.52238e-05
8 *195:A_N *45:14 0.000129094
9 *213:C_N *213:A 9.84572e-06
10 *213:C_N *213:B 0
11 *216:B1_N *213:A 2.84109e-05
12 *216:B1_N *213:B 4.25176e-05
13 *20:6 *195:C 9.83442e-05
14 *20:6 *45:14 4.73286e-05
15 *20:21 *213:A 3.23206e-05
16 *20:21 *213:B 5.33005e-05
17 *20:21 *39:22 8.83081e-05
*RES
1 *194:X *20:6 10.2464 
2 *20:6 *195:A_N 11.4786 
3 *20:6 *20:21 14.2143 
4 *20:21 *213:C_N 9.72857 
5 *20:21 *216:B1_N 9.83571 
*END

*D_NET *21 0.00355206
*CONN
*I *207:A I *D sky130_fd_sc_hd__or4_2
*I *208:A1 I *D sky130_fd_sc_hd__o22ai_1
*I *197:D I *D sky130_fd_sc_hd__and4_1
*I *198:B1 I *D sky130_fd_sc_hd__a31o_1
*I *196:X O *D sky130_fd_sc_hd__and2_1
*CAP
1 *207:A 0.000233471
2 *208:A1 1.1624e-05
3 *197:D 0
4 *198:B1 0.000212246
5 *196:X 0.000119419
6 *21:32 0.000565963
7 *21:10 0.000454477
8 *21:8 0.000682518
9 *198:B1 *198:A2 7.50601e-05
10 *198:B1 *76:21 3.85665e-05
11 *207:A *207:C 0.000219762
12 *207:A *32:12 1.03037e-05
13 *207:A *82:45 0
14 *208:A1 *207:C 5.52238e-05
15 *208:A1 *207:D 5.52238e-05
16 *21:8 *39:22 0.000186669
17 *21:10 *206:A 0
18 *21:10 *214:A1 0
19 *21:10 *215:B 0
20 *21:10 *257:A 9.21418e-06
21 *21:10 *35:40 9.25014e-06
22 *21:10 *80:37 0
23 *21:32 *206:A 0
24 *21:32 *35:40 0.000259278
25 *21:32 *81:16 0
26 *21:32 *82:45 0
27 P[1] *198:B1 1.39726e-05
28 *198:A3 *198:B1 8.61157e-05
29 *249:A *198:B1 0.000244152
30 *249:A *21:10 9.54798e-06
*RES
1 *196:X *21:8 15.5679 
2 *21:8 *21:10 4.07143 
3 *21:10 *198:B1 19.1571 
4 *21:10 *197:D 13.8 
5 *21:8 *21:32 5.89286 
6 *21:32 *208:A1 14.3357 
7 *21:32 *207:A 17.4429 
*END

*D_NET *22 0.00115553
*CONN
*I *221:B1 I *D sky130_fd_sc_hd__a31o_1
*I *199:A_N I *D sky130_fd_sc_hd__and2b_1
*I *197:X O *D sky130_fd_sc_hd__and4_1
*CAP
1 *221:B1 9.493e-05
2 *199:A_N 0.000105877
3 *197:X 0.000129832
4 *22:6 0.000330639
5 *199:A_N *221:A2 0.000101545
6 *199:A_N *257:A 0
7 *199:A_N *80:8 0
8 *221:B1 *201:B 7.32272e-05
9 *22:6 *201:B 6.05161e-06
10 *22:6 *45:14 0.000230482
11 *22:6 *76:8 5.52302e-05
12 *22:6 *79:27 2.77173e-05
*RES
1 *197:X *22:6 12.3 
2 *22:6 *199:A_N 20.2464 
3 *22:6 *221:B1 11.0857 
*END

*D_NET *23 0.00127381
*CONN
*I *199:B I *D sky130_fd_sc_hd__and2b_1
*I *221:A2 I *D sky130_fd_sc_hd__a31o_1
*I *198:X O *D sky130_fd_sc_hd__a31o_1
*CAP
1 *199:B 9.67793e-05
2 *221:A2 8.98582e-05
3 *198:X 0.000313921
4 *23:6 0.000500558
5 *221:A2 *221:A1 1.02504e-05
6 *221:A2 *80:8 0
7 P[1] *23:6 0.000139907
8 *199:A_N *221:A2 0.000101545
9 *253:A *199:B 1.03968e-05
10 *253:A *23:6 1.05947e-05
*RES
1 *198:X *23:6 13.1214 
2 *23:6 *221:A2 19.9429 
3 *23:6 *199:B 10.675 
*END

*D_NET *24 0.000819856
*CONN
*I *202:A I *D sky130_fd_sc_hd__xnor2_1
*I *199:X O *D sky130_fd_sc_hd__and2b_1
*CAP
1 *202:A 0.000312926
2 *199:X 0.000312926
3 *202:A *79:12 7.6021e-05
4 P[2] *202:A 0
5 *252:A *202:A 0.000106467
6 *253:A *202:A 1.15172e-05
*RES
1 *199:X *202:A 32.5464 
*END

*D_NET *25 0.000971614
*CONN
*I *201:B I *D sky130_fd_sc_hd__nand2_1
*I *221:A3 I *D sky130_fd_sc_hd__a31o_1
*I *200:X O *D sky130_fd_sc_hd__a21bo_1
*CAP
1 *201:B 9.4005e-05
2 *221:A3 0
3 *200:X 0.000130502
4 *25:12 0.000224507
5 *201:B *79:23 0.000218045
6 *201:B *79:27 9.71197e-05
7 *25:12 *205:B 0
8 *25:12 *214:A1 4.93999e-05
9 *25:12 *214:B1 5.52302e-05
10 *25:12 *221:A1 1.52978e-05
11 *25:12 *79:33 8.22793e-06
12 *221:B1 *201:B 7.32272e-05
13 *22:6 *201:B 6.05161e-06
*RES
1 *200:X *25:12 20.4786 
2 *25:12 *221:A3 9.3 
3 *25:12 *201:B 12.3 
*END

*D_NET *26 0.000231082
*CONN
*I *202:B I *D sky130_fd_sc_hd__xnor2_1
*I *201:Y O *D sky130_fd_sc_hd__nand2_1
*CAP
1 *202:B 7.74659e-05
2 *201:Y 7.74659e-05
3 *202:B *79:12 5.33005e-05
4 *202:B *79:21 1.54142e-05
5 *202:B *79:23 7.43578e-06
*RES
1 *201:Y *202:B 19.9571 
*END

*D_NET *27 0.00335029
*CONN
*I *241:C I *D sky130_fd_sc_hd__and3_1
*I *245:A1 I *D sky130_fd_sc_hd__a21oi_1
*I *209:A_N I *D sky130_fd_sc_hd__nand3b_1
*I *210:B1_N I *D sky130_fd_sc_hd__a21bo_1
*I *203:Y O *D sky130_fd_sc_hd__nand2_1
*CAP
1 *241:C 0.000177583
2 *245:A1 0.00018751
3 *209:A_N 2.07581e-05
4 *210:B1_N 1.36519e-05
5 *203:Y 0
6 *27:36 0.000501169
7 *27:16 0.00046775
8 *27:4 0.000569416
9 *209:A_N *31:19 4.65129e-06
10 *210:B1_N *210:A1 2.41665e-05
11 *210:B1_N *210:A2 5.65955e-05
12 *210:B1_N *33:8 0.000100262
13 *241:C *82:25 0.00010858
14 *241:C *82:31 0.000160197
15 *245:A1 *245:A2 7.31954e-05
16 *245:A1 *245:B1 9.71197e-05
17 *245:A1 *56:16 7.43578e-06
18 *245:A1 *82:31 6.05161e-06
19 *245:A1 *82:39 1.98839e-05
20 *27:16 *210:A1 4.87854e-05
21 *27:16 *229:A 4.87953e-05
22 *27:16 *31:19 1.02132e-05
23 *27:16 *31:32 6.87866e-05
24 *27:16 *33:6 3.42428e-05
25 *27:16 *33:8 0.000123617
26 *27:16 *82:45 0.000286481
27 *27:36 *228:B 0
28 *27:36 *243:B 0
29 *27:36 *245:B1 7.6644e-05
30 *27:36 *246:B1 6.8646e-06
31 *27:36 *78:69 0
32 *27:36 *82:39 4.98872e-05
*RES
1 *203:Y *27:4 9.3 
2 *27:4 *27:16 9.76786 
3 *27:16 *210:B1_N 10.2464 
4 *27:16 *209:A_N 9.72857 
5 *27:4 *27:36 11.5536 
6 *27:36 *245:A1 12.3357 
7 *27:36 *241:C 11.9607 
*END

*D_NET *28 0.000974163
*CONN
*I *208:A2 I *D sky130_fd_sc_hd__o22ai_1
*I *207:B I *D sky130_fd_sc_hd__or4_2
*I *204:Y O *D sky130_fd_sc_hd__nand2_1
*CAP
1 *208:A2 0.000157215
2 *207:B 0
3 *204:Y 0.000155262
4 *28:12 0.000312477
5 *208:A2 *32:12 0.000225609
6 *28:12 *204:A 1.13883e-05
7 *28:12 *204:B 3.67252e-05
8 *28:12 *82:45 7.54868e-05
*RES
1 *204:Y *28:12 20.6929 
2 *28:12 *207:B 9.3 
3 *28:12 *208:A2 11.4786 
*END

*D_NET *29 0.00291592
*CONN
*I *242:A1 I *D sky130_fd_sc_hd__a21oi_1
*I *208:B1 I *D sky130_fd_sc_hd__o22ai_1
*I *207:C I *D sky130_fd_sc_hd__or4_2
*I *231:A I *D sky130_fd_sc_hd__xnor2_1
*I *215:A I *D sky130_fd_sc_hd__nor2_1
*I *205:X O *D sky130_fd_sc_hd__and4_1
*CAP
1 *242:A1 0
2 *208:B1 0
3 *207:C 0.000111974
4 *231:A 0
5 *215:A 5.99457e-05
6 *205:X 0
7 *29:34 0.000262403
8 *29:32 0.000322933
9 *29:19 0.000355031
10 *29:4 0.000242473
11 *207:C *207:D 5.30578e-05
12 *207:C *30:12 5.62995e-05
13 *207:C *32:12 3.14193e-05
14 *215:A *205:C 1.64329e-05
15 *215:A *206:B 5.52238e-05
16 *29:19 *205:C 4.51726e-05
17 *29:19 *232:D 0
18 *29:19 *77:45 0.000125731
19 *29:32 *232:A_N 2.8833e-05
20 *29:32 *232:D 0
21 *29:32 *242:B1 9.41642e-05
22 *29:32 *54:10 0
23 *29:32 *77:45 0.000237521
24 *29:32 *81:6 0.000177815
25 *29:34 *30:12 9.02133e-05
26 *29:34 *81:6 4.38128e-05
27 *29:34 *81:10 0.000230482
28 *207:A *207:C 0.000219762
29 *208:A1 *207:C 5.52238e-05
*RES
1 *205:X *29:4 9.3 
2 *29:4 *215:A 10.5679 
3 *29:4 *29:19 7.5 
4 *29:19 *231:A 13.8 
5 *29:19 *29:32 9.42857 
6 *29:32 *29:34 3.82143 
7 *29:34 *207:C 12.7286 
8 *29:34 *208:B1 9.3 
9 *29:32 *242:A1 9.3 
*END

*D_NET *30 0.00136132
*CONN
*I *208:B2 I *D sky130_fd_sc_hd__o22ai_1
*I *207:D I *D sky130_fd_sc_hd__or4_2
*I *206:Y O *D sky130_fd_sc_hd__nand2_1
*CAP
1 *208:B2 0
2 *207:D 4.71148e-05
3 *206:Y 0.000275219
4 *30:12 0.000322333
5 *207:D *32:12 0.00014183
6 *30:12 *242:A2 0
7 *30:12 *78:12 0
8 *30:12 *78:58 0
9 *30:12 *81:16 0.000320031
10 *207:C *207:D 5.30578e-05
11 *207:C *30:12 5.62995e-05
12 *208:A1 *207:D 5.52238e-05
13 *29:34 *30:12 9.02133e-05
*RES
1 *206:Y *30:12 24.9607 
2 *30:12 *207:D 11.0857 
3 *30:12 *208:B2 9.3 
*END

*D_NET *31 0.00245786
*CONN
*I *234:A I *D sky130_fd_sc_hd__nand3_1
*I *235:A1 I *D sky130_fd_sc_hd__a21oi_1
*I *210:A1 I *D sky130_fd_sc_hd__a21bo_1
*I *209:B I *D sky130_fd_sc_hd__nand3b_1
*I *207:X O *D sky130_fd_sc_hd__or4_2
*CAP
1 *234:A 0.000218319
2 *235:A1 0
3 *210:A1 0.000146367
4 *209:B 0
5 *207:X 0.000173829
6 *31:32 0.000375746
7 *31:19 0.000323179
8 *31:12 0.000193214
9 *210:A1 *210:A2 0.000228508
10 *234:A *234:B 7.37961e-05
11 *234:A *234:C 9.83388e-05
12 *234:A *236:A 3.41461e-05
13 *234:A *240:A3 1.37292e-05
14 *234:A *56:16 0
15 *31:12 *209:C 2.22043e-05
16 *31:12 *32:12 0.000150194
17 *31:12 *33:28 5.48781e-05
18 *31:32 *33:28 0.000194804
19 *209:A_N *31:19 4.65129e-06
20 *210:B1_N *210:A1 2.41665e-05
21 *27:16 *210:A1 4.87854e-05
22 *27:16 *31:19 1.02132e-05
23 *27:16 *31:32 6.87866e-05
*RES
1 *207:X *31:12 21.3 
2 *31:12 *209:B 9.3 
3 *31:12 *31:19 0.428571 
4 *31:19 *210:A1 12.7107 
5 *31:19 *31:32 8 
6 *31:32 *235:A1 13.8 
7 *31:32 *234:A 17.6929 
*END

*D_NET *32 0.00209308
*CONN
*I *209:C I *D sky130_fd_sc_hd__nand3b_1
*I *210:A2 I *D sky130_fd_sc_hd__a21bo_1
*I *208:Y O *D sky130_fd_sc_hd__o22ai_1
*CAP
1 *209:C 5.34473e-06
2 *210:A2 0.000171532
3 *208:Y 0.000376921
4 *32:12 0.000553797
5 *210:A2 *33:8 0.000118822
6 *32:12 *82:45 0
7 *207:A *32:12 1.03037e-05
8 *207:C *32:12 3.14193e-05
9 *207:D *32:12 0.00014183
10 *208:A2 *32:12 0.000225609
11 *210:A1 *210:A2 0.000228508
12 *210:B1_N *210:A2 5.65955e-05
13 *31:12 *209:C 2.22043e-05
14 *31:12 *32:12 0.000150194
*RES
1 *208:Y *32:12 21.9875 
2 *32:12 *210:A2 17.6125 
3 *32:12 *209:C 14.0768 
*END

*D_NET *33 0.00310795
*CONN
*I *235:A2 I *D sky130_fd_sc_hd__a21oi_1
*I *234:B I *D sky130_fd_sc_hd__nand3_1
*I *219:A I *D sky130_fd_sc_hd__and3_1
*I *220:A1 I *D sky130_fd_sc_hd__a21oi_1
*I *209:Y O *D sky130_fd_sc_hd__nand3b_1
*CAP
1 *235:A2 0
2 *234:B 4.01517e-05
3 *219:A 2.23854e-05
4 *220:A1 0.00018741
5 *209:Y 3.52434e-05
6 *33:28 0.000210511
7 *33:8 0.000738153
8 *33:6 0.00073396
9 *220:A1 *219:C 7.13671e-05
10 *220:A1 *220:A2 8.49803e-06
11 *220:A1 *220:B1 9.90367e-05
12 *220:A1 *34:6 1.03968e-05
13 *234:B *234:C 5.42459e-05
14 *234:B *236:A 5.52238e-05
15 *234:B *58:8 9.80704e-05
16 *33:8 *34:6 2.75742e-05
17 *33:28 *240:A3 1.52978e-05
18 *33:28 *82:45 0
19 *210:A2 *33:8 0.000118822
20 *210:B1_N *33:8 0.000100262
21 *234:A *234:B 7.37961e-05
22 *27:16 *33:6 3.42428e-05
23 *27:16 *33:8 0.000123617
24 *31:12 *33:28 5.48781e-05
25 *31:32 *33:28 0.000194804
*RES
1 *209:Y *33:6 9.83571 
2 *33:6 *33:8 7.10714 
3 *33:8 *220:A1 11.8893 
4 *33:8 *219:A 9.72857 
5 *33:6 *33:28 12.4643 
6 *33:28 *234:B 11.05 
7 *33:28 *235:A2 9.3 
*END

*D_NET *34 0.000874748
*CONN
*I *219:B I *D sky130_fd_sc_hd__and3_1
*I *220:A2 I *D sky130_fd_sc_hd__a21oi_1
*I *210:X O *D sky130_fd_sc_hd__a21bo_1
*CAP
1 *219:B 0
2 *220:A2 9.47855e-05
3 *210:X 0.000238469
4 *34:6 0.000333255
5 *220:A2 *219:C 8.38038e-05
6 *220:A2 *220:B1 5.52238e-05
7 *220:A2 *226:A1 2.27416e-05
8 *220:A1 *220:A2 8.49803e-06
9 *220:A1 *34:6 1.03968e-05
10 *33:8 *34:6 2.75742e-05
*RES
1 *210:X *34:6 12.3 
2 *34:6 *220:A2 11.6929 
3 *34:6 *219:B 9.3 
*END

*D_NET *35 0.00388294
*CONN
*I *231:B I *D sky130_fd_sc_hd__xnor2_1
*I *242:A2 I *D sky130_fd_sc_hd__a21oi_1
*I *216:A1 I *D sky130_fd_sc_hd__o21bai_1
*I *213:A I *D sky130_fd_sc_hd__or3b_1
*I *211:X O *D sky130_fd_sc_hd__and4_1
*CAP
1 *231:B 0.00010108
2 *242:A2 0.000106342
3 *216:A1 0
4 *213:A 0.000150938
5 *211:X 0
6 *35:40 0.000663552
7 *35:12 0.000508548
8 *35:4 0.00081374
9 *213:A *213:B 5.80252e-05
10 *213:A *36:12 7.6696e-05
11 *213:A *39:22 3.57393e-05
12 *213:A *40:10 0.000228305
13 *213:A *67:57 5.90666e-05
14 *213:A *67:76 1.40034e-05
15 *231:B *78:10 5.03772e-05
16 *242:A2 *78:58 0.000109809
17 *242:A2 *81:16 0
18 *35:12 *36:12 5.37741e-06
19 *35:12 *39:22 0.000442566
20 *35:12 *67:57 5.41794e-05
21 *35:40 *82:45 1.19402e-05
22 *35:40 *82:49 5.35516e-05
23 *213:C_N *213:A 9.84572e-06
24 *216:B1_N *213:A 2.84109e-05
25 *20:21 *213:A 3.23206e-05
26 *21:10 *35:40 9.25014e-06
27 *21:32 *35:40 0.000259278
28 *30:12 *242:A2 0
*RES
1 *211:X *35:4 9.3 
2 *35:4 *35:12 14.2679 
3 *35:12 *213:A 14.2286 
4 *35:12 *216:A1 9.3 
5 *35:4 *35:40 17.5179 
6 *35:40 *242:A2 20.8536 
7 *35:40 *231:B 11.0679 
*END

*D_NET *36 0.000997833
*CONN
*I *216:A2 I *D sky130_fd_sc_hd__o21bai_1
*I *213:B I *D sky130_fd_sc_hd__or3b_1
*I *212:Y O *D sky130_fd_sc_hd__nand2_1
*CAP
1 *216:A2 0
2 *213:B 0.000112621
3 *212:Y 0.000155714
4 *36:12 0.000268335
5 *213:B *39:22 0.000193974
6 *213:B *67:57 8.29398e-06
7 *36:12 *67:57 9.77264e-06
8 *36:12 *67:76 1.32056e-05
9 *213:A *213:B 5.80252e-05
10 *213:A *36:12 7.6696e-05
11 *213:C_N *213:B 0
12 *216:B1_N *213:B 4.25176e-05
13 *20:21 *213:B 5.33005e-05
14 *35:12 *36:12 5.37741e-06
*RES
1 *212:Y *36:12 20.3893 
2 *36:12 *213:B 12.6393 
3 *36:12 *216:A2 9.3 
*END

*D_NET *37 0.00116391
*CONN
*I *218:B1_N I *D sky130_fd_sc_hd__a21bo_1
*I *217:A I *D sky130_fd_sc_hd__and3_1
*I *222:A1 I *D sky130_fd_sc_hd__a21o_1
*I *213:X O *D sky130_fd_sc_hd__or3b_1
*CAP
1 *218:B1_N 6.96875e-05
2 *217:A 2.03441e-05
3 *222:A1 0.00019261
4 *213:X 3.68863e-05
5 *37:8 0.000336878
6 *37:6 0.000230498
7 *217:A *217:C 5.7661e-06
8 *217:A *40:10 0
9 *218:B1_N *218:A1 0
10 *222:A1 *217:C 2.0954e-05
11 *222:A1 *222:A2 6.90465e-05
12 *222:A1 *222:B1 1.32552e-05
13 *222:A1 *40:10 2.59355e-05
14 *222:A1 *40:12 2.14658e-05
15 *37:6 *40:10 2.44318e-05
16 *37:8 *40:10 9.61553e-05
*RES
1 *213:X *37:6 9.83571 
2 *37:6 *37:8 1.76786 
3 *37:8 *222:A1 11.8893 
4 *37:8 *217:A 9.72857 
5 *37:6 *218:B1_N 19.3357 
*END

*D_NET *38 0.00059604
*CONN
*I *215:B I *D sky130_fd_sc_hd__nor2_1
*I *214:Y O *D sky130_fd_sc_hd__a22oi_1
*CAP
1 *215:B 0.000149873
2 *214:Y 0.000149873
3 *215:B *206:A 5.26184e-05
4 *215:B *214:A2 8.38159e-05
5 *215:B *214:B1 2.35444e-05
6 *215:B *78:12 9.11365e-06
7 *215:B *78:18 4.94362e-05
8 *215:B *80:27 7.03295e-05
9 *215:B *80:31 7.43578e-06
10 *21:10 *215:B 0
*RES
1 *214:Y *215:B 31.5107 
*END

*D_NET *39 0.0045404
*CONN
*I *218:A1 I *D sky130_fd_sc_hd__a21bo_1
*I *217:B I *D sky130_fd_sc_hd__and3_1
*I *222:B1 I *D sky130_fd_sc_hd__a21o_1
*I *215:Y O *D sky130_fd_sc_hd__nor2_1
*CAP
1 *218:A1 0.000136379
2 *217:B 1.91209e-05
3 *222:B1 0.00014857
4 *215:Y 0.000834086
5 *39:24 0.000210771
6 *39:22 0.00101355
7 *218:A1 *218:A2 0.000175519
8 *222:B1 *217:C 0
9 *222:B1 *222:A2 8.07313e-05
10 *222:B1 *41:12 9.90431e-05
11 *39:22 *196:A 0.000311511
12 *39:22 *206:B 5.52238e-05
13 *39:22 *211:D 2.77289e-05
14 *39:22 *212:B 1.59373e-05
15 *39:22 *40:10 0.000173547
16 *39:22 *67:57 9.58181e-05
17 *39:22 *67:76 2.38596e-05
18 *39:22 *81:16 0.000105163
19 *39:24 *222:A2 7.43578e-06
20 *39:24 *40:10 2.14658e-05
21 *39:24 *40:12 2.44318e-05
22 *213:A *39:22 3.57393e-05
23 *213:B *39:22 0.000193974
24 *218:B1_N *218:A1 0
25 *222:A1 *222:B1 1.32552e-05
26 *20:21 *39:22 8.83081e-05
27 *21:8 *39:22 0.000186669
28 *35:12 *39:22 0.000442566
*RES
1 *215:Y *39:22 36.9071 
2 *39:22 *39:24 0.946429 
3 *39:24 *222:B1 12.6214 
4 *39:24 *217:B 9.72857 
5 *39:22 *218:A1 21.1571 
*END

*D_NET *40 0.00200194
*CONN
*I *218:A2 I *D sky130_fd_sc_hd__a21bo_1
*I *217:C I *D sky130_fd_sc_hd__and3_1
*I *222:A2 I *D sky130_fd_sc_hd__a21o_1
*I *216:Y O *D sky130_fd_sc_hd__o21bai_1
*CAP
1 *218:A2 0.000104736
2 *217:C 2.14981e-05
3 *222:A2 2.34705e-05
4 *216:Y 0.000352281
5 *40:12 5.63605e-05
6 *40:10 0.000468408
7 *213:A *40:10 0.000228305
8 *217:A *217:C 5.7661e-06
9 *217:A *40:10 0
10 *218:A1 *218:A2 0.000175519
11 *222:A1 *217:C 2.0954e-05
12 *222:A1 *222:A2 6.90465e-05
13 *222:A1 *40:10 2.59355e-05
14 *222:A1 *40:12 2.14658e-05
15 *222:B1 *217:C 0
16 *222:B1 *222:A2 8.07313e-05
17 *37:6 *40:10 2.44318e-05
18 *37:8 *40:10 9.61553e-05
19 *39:22 *40:10 0.000173547
20 *39:24 *222:A2 7.43578e-06
21 *39:24 *40:10 2.14658e-05
22 *39:24 *40:12 2.44318e-05
*RES
1 *216:Y *40:10 16.4429 
2 *40:10 *40:12 0.535714 
3 *40:12 *222:A2 10.6571 
4 *40:12 *217:C 9.925 
5 *40:10 *218:A2 20.55 
*END

*D_NET *41 0.00064199
*CONN
*I *223:A_N I *D sky130_fd_sc_hd__nand2b_1
*I *224:A_N I *D sky130_fd_sc_hd__nand3b_1
*I *217:X O *D sky130_fd_sc_hd__and3_1
*CAP
1 *223:A_N 0
2 *224:A_N 3.49331e-05
3 *217:X 0.000158174
4 *41:12 0.000193107
5 *224:A_N *223:B 0.00010096
6 *41:12 *46:12 5.57727e-05
7 *222:B1 *41:12 9.90431e-05
*RES
1 *217:X *41:12 21.1929 
2 *41:12 *224:A_N 10.2464 
3 *41:12 *223:A_N 9.3 
*END

*D_NET *42 0.00104046
*CONN
*I *219:C I *D sky130_fd_sc_hd__and3_1
*I *220:B1 I *D sky130_fd_sc_hd__a21oi_1
*I *218:X O *D sky130_fd_sc_hd__a21bo_1
*CAP
1 *219:C 1.27758e-05
2 *220:B1 5.74825e-05
3 *218:X 0.000265291
4 *42:12 0.000335549
5 *220:B1 *226:A1 5.99322e-05
6 *42:12 *48:8 0
7 *220:A1 *219:C 7.13671e-05
8 *220:A1 *220:B1 9.90367e-05
9 *220:A2 *219:C 8.38038e-05
10 *220:A2 *220:B1 5.52238e-05
*RES
1 *218:X *42:12 22.6036 
2 *42:12 *220:B1 11.0679 
3 *42:12 *219:C 10.1036 
*END

*D_NET *43 0.00368894
*CONN
*I *237:B1 I *D sky130_fd_sc_hd__a211oi_1
*I *238:A1 I *D sky130_fd_sc_hd__o211a_1
*I *240:A1 I *D sky130_fd_sc_hd__o31a_1
*I *225:A I *D sky130_fd_sc_hd__nor3_1
*I *226:A1 I *D sky130_fd_sc_hd__o21a_1
*I *219:X O *D sky130_fd_sc_hd__and3_1
*CAP
1 *237:B1 0.000181447
2 *238:A1 0
3 *240:A1 0.000270962
4 *225:A 0.000159489
5 *226:A1 0.000158288
6 *219:X 0
7 *43:38 0.000314468
8 *43:34 0.000513163
9 *43:21 0.000545582
10 *43:4 0.000256172
11 *226:A1 *44:6 3.18676e-05
12 *237:B1 *239:A 0.000186662
13 *240:A1 *237:A1 9.83442e-05
14 *240:A1 *238:A2 9.11048e-06
15 *240:A1 *239:A 9.25014e-06
16 *240:A1 *240:A2 3.42718e-05
17 *240:A1 *57:19 0.000203174
18 *43:21 *225:B 0
19 *43:21 *225:C 0
20 *43:34 *59:10 0
21 *43:38 *237:A1 0.000316184
22 *43:38 *237:A2 0.000317831
23 *220:A2 *226:A1 2.27416e-05
24 *220:B1 *226:A1 5.99322e-05
*RES
1 *219:X *43:4 9.3 
2 *43:4 *226:A1 12.3357 
3 *43:4 *43:21 10.6429 
4 *43:21 *225:A 11.8893 
5 *43:21 *43:34 9.23214 
6 *43:34 *43:38 7.5 
7 *43:38 *240:A1 23.8357 
8 *43:38 *238:A1 9.3 
9 *43:34 *237:B1 16.6036 
*END

*D_NET *44 0.000514453
*CONN
*I *226:A2 I *D sky130_fd_sc_hd__o21a_1
*I *225:B I *D sky130_fd_sc_hd__nor3_1
*I *220:Y O *D sky130_fd_sc_hd__a21oi_1
*CAP
1 *226:A2 0
2 *225:B 0.00014392
3 *220:Y 6.80259e-05
4 *44:6 0.000211946
5 *225:B *225:C 5.33882e-05
6 *225:B *226:B1 5.30637e-06
7 *226:A1 *44:6 3.18676e-05
8 *43:21 *225:B 0
*RES
1 *220:Y *44:6 10.2464 
2 *44:6 *225:B 20.5857 
3 *44:6 *226:A2 9.3 
*END

*D_NET *45 0.00357546
*CONN
*I *247:A I *D sky130_fd_sc_hd__xnor2_1
*I *224:B I *D sky130_fd_sc_hd__nand3b_1
*I *221:X O *D sky130_fd_sc_hd__a31o_1
*CAP
1 *247:A 0
2 *224:B 0.000219178
3 *221:X 0.000777006
4 *45:14 0.000996185
5 *224:B *247:B 0
6 *224:B *46:12 1.02504e-05
7 *45:14 *192:B 0.000168676
8 *45:14 *195:B 5.52238e-05
9 *45:14 *195:C 4.1639e-05
10 *45:14 *257:A 0.000133304
11 *45:14 *259:A 0.000126629
12 *45:14 *67:25 0.000225587
13 *45:14 *76:8 8.40933e-05
14 *45:14 *76:27 0.000139632
15 *45:14 *79:27 7.43578e-06
16 *195:A_N *45:14 0.000129094
17 *249:A *45:14 0.00018372
18 *20:6 *45:14 4.73286e-05
19 *22:6 *45:14 0.000230482
*RES
1 *221:X *45:14 28.0857 
2 *45:14 *224:B 21.9071 
3 *45:14 *247:A 9.3 
*END

*D_NET *46 0.000735863
*CONN
*I *224:C I *D sky130_fd_sc_hd__nand3b_1
*I *223:B I *D sky130_fd_sc_hd__nand2b_1
*I *222:X O *D sky130_fd_sc_hd__a21o_1
*CAP
1 *224:C 0
2 *223:B 0.000116112
3 *222:X 0.000126626
4 *46:12 0.000242738
5 *223:B *247:B 5.54958e-05
6 *46:12 *48:8 2.79092e-05
7 *224:A_N *223:B 0.00010096
8 *224:B *46:12 1.02504e-05
9 *41:12 *46:12 5.57727e-05
*RES
1 *222:X *46:12 20.7821 
2 *46:12 *223:B 12.0545 
3 *46:12 *224:C 9.3 
*END

*D_NET *47 0.000577686
*CONN
*I *247:B I *D sky130_fd_sc_hd__xnor2_1
*I *223:Y O *D sky130_fd_sc_hd__nand2b_1
*CAP
1 *247:B 0.000261095
2 *223:Y 0.000261095
3 *223:B *247:B 5.54958e-05
4 *224:B *247:B 0
*RES
1 *223:Y *247:B 31.3143 
*END

*D_NET *48 0.0015654
*CONN
*I *225:C I *D sky130_fd_sc_hd__nor3_1
*I *226:B1 I *D sky130_fd_sc_hd__o21a_1
*I *224:Y O *D sky130_fd_sc_hd__nand3b_1
*CAP
1 *225:C 0.000171673
2 *226:B1 5.79276e-05
3 *224:Y 0.000480336
4 *48:8 0.000709936
5 *225:C *227:A 5.52302e-05
6 *225:C *227:B 0
7 *226:B1 *227:B 3.69047e-06
8 *225:B *225:C 5.33882e-05
9 *225:B *226:B1 5.30637e-06
10 *42:12 *48:8 0
11 *43:21 *225:C 0
12 *46:12 *48:8 2.79092e-05
*RES
1 *224:Y *48:8 22.7286 
2 *48:8 *226:B1 14.7464 
3 *48:8 *225:C 17.1929 
*END

*D_NET *49 0.000626844
*CONN
*I *256:A I *D sky130_fd_sc_hd__buf_1
*I *227:A I *D sky130_fd_sc_hd__nor2_1
*I *225:Y O *D sky130_fd_sc_hd__nor3_1
*CAP
1 *256:A 0.00016494
2 *227:A 0.000120867
3 *225:Y 0
4 *49:4 0.000285807
5 *256:A *260:A 0
6 *225:C *227:A 5.52302e-05
*RES
1 *225:Y *49:4 9.3 
2 *49:4 *227:A 11.5143 
3 *49:4 *256:A 20.8893 
*END

*D_NET *50 0.000544096
*CONN
*I *227:B I *D sky130_fd_sc_hd__nor2_1
*I *226:X O *D sky130_fd_sc_hd__o21a_1
*CAP
1 *227:B 0.000270203
2 *226:X 0.000270203
3 *225:C *227:B 0
4 *226:B1 *227:B 3.69047e-06
*RES
1 *226:X *227:B 31.3143 
*END

*D_NET *51 0.000634815
*CONN
*I *245:B1 I *D sky130_fd_sc_hd__a21oi_1
*I *228:Y O *D sky130_fd_sc_hd__nand2_1
*CAP
1 *245:B1 0.000112041
2 *228:Y 0.000112041
3 *245:B1 *245:A2 0.000115978
4 *245:B1 *246:B1 1.17968e-05
5 *245:B1 *82:39 0.000109195
6 *245:A1 *245:B1 9.71197e-05
7 *27:36 *245:B1 7.6644e-05
*RES
1 *228:Y *245:B1 30.5286 
*END

*D_NET *52 0.000630027
*CONN
*I *232:A_N I *D sky130_fd_sc_hd__and4bb_1
*I *230:A_N I *D sky130_fd_sc_hd__and3b_1
*I *229:X O *D sky130_fd_sc_hd__and4_1
*CAP
1 *232:A_N 0.000166504
2 *230:A_N 0
3 *229:X 6.1178e-05
4 *52:6 0.000227682
5 *232:A_N *230:B 1.92789e-05
6 *232:A_N *232:C 5.85405e-05
7 *232:A_N *54:10 0
8 *232:A_N *82:25 7.79781e-06
9 *52:6 *230:B 5.41609e-05
10 *52:6 *77:49 6.05161e-06
11 *29:32 *232:A_N 2.8833e-05
*RES
1 *229:X *52:6 10.6571 
2 *52:6 *230:A_N 9.3 
3 *52:6 *232:A_N 21.6929 
*END

*D_NET *53 0.000622483
*CONN
*I *233:A I *D sky130_fd_sc_hd__xor2_1
*I *230:X O *D sky130_fd_sc_hd__and3b_1
*CAP