*SPEF "ieee 1481-1999"
*DESIGN "mult4_SARSA_RUIDO_e9_SARSA_RUIDO_e9_SARSA_RUIDO_e9_SARSA_RUIDO_e9"
*DATE "14:25:41 Tuesday September 16, 2025"
*VENDOR "The OpenROAD Project"
*PROGRAM "OpenROAD"
*VERSION "edf00dff99f6c40d67a30c0e22a8191c5d2ed9d6"
*DESIGN_FLOW "NAME_SCOPE LOCAL" "PIN_CAP NONE"
*DIVIDER /
*DELIMITER :
*BUS_DELIMITER []
*T_UNIT 1 NS
*C_UNIT 1 PF
*R_UNIT 1 OHM
*L_UNIT 1 HENRY

*NAME_MAP
*1 A[0]
*2 A[1]
*3 A[2]
*4 A[3]
*5 B[0]
*6 B[1]
*7 B[2]
*8 B[3]
*9 P[0]
*10 P[1]
*11 P[2]
*12 P[3]
*13 P[4]
*14 P[5]
*15 P[6]
*16 P[7]
*19 _00_
*20 _01_
*21 _02_
*22 _03_
*23 _04_
*24 _05_
*25 _06_
*26 _07_
*27 _08_
*28 _09_
*29 _10_
*30 _11_
*31 _12_
*32 _13_
*33 _14_
*34 _15_
*35 _16_
*36 _17_
*37 _18_
*38 _19_
*39 _20_
*40 _21_
*41 _22_
*42 _23_
*43 mul_ll\.pp1
*44 mul_ll\.pp2
*45 net1
*46 net10
*47 net11
*48 net12
*49 net13
*50 net14
*51 net15
*52 net16
*53 net2
*54 net3
*55 net4
*56 net5
*57 net6
*58 net7
*59 net8
*60 net9
*61 FILLER_0_15
*62 FILLER_0_27
*63 FILLER_0_29
*64 FILLER_0_3
*65 FILLER_0_34
*66 FILLER_0_48
*67 FILLER_0_57
*68 FILLER_0_69
*69 FILLER_1_15
*70 FILLER_1_27
*71 FILLER_1_3
*72 FILLER_1_39
*73 FILLER_1_45
*74 FILLER_1_51
*75 FILLER_1_57
*76 FILLER_1_66
*77 FILLER_1_78
*78 FILLER_2_19
*79 FILLER_2_27
*80 FILLER_2_29
*81 FILLER_2_41
*82 FILLER_2_65
*83 FILLER_2_7
*84 FILLER_3_11
*85 FILLER_3_16
*86 FILLER_3_3
*87 FILLER_3_42
*88 FILLER_3_54
*89 FILLER_3_69
*90 FILLER_4_19
*91 FILLER_4_26
*92 FILLER_4_29
*93 FILLER_4_41
*94 FILLER_4_53
*95 FILLER_4_57
*96 FILLER_4_7
*97 FILLER_4_72
*98 FILLER_5_18
*99 FILLER_5_22
*100 FILLER_5_28
*101 FILLER_5_39
*102 FILLER_5_51
*103 FILLER_5_6
*104 FILLER_5_70
*105 FILLER_6_15
*106 FILLER_6_29
*107 FILLER_6_3
*108 FILLER_6_39
*109 FILLER_6_51
*110 FILLER_6_62
*111 FILLER_6_70
*112 FILLER_7_19
*113 FILLER_7_33
*114 FILLER_7_42
*115 FILLER_7_54
*116 FILLER_7_57
*117 FILLER_7_63
*118 FILLER_7_67
*119 FILLER_7_7
*120 FILLER_7_75
*121 FILLER_8_15
*122 FILLER_8_26
*123 FILLER_8_29
*124 FILLER_8_3
*125 FILLER_8_41
*126 FILLER_8_53
*127 FILLER_8_67
*128 FILLER_8_79
*129 FILLER_9_15
*130 FILLER_9_23
*131 FILLER_9_29
*132 FILLER_9_3
*133 FILLER_9_41
*134 FILLER_9_53
*135 FILLER_9_57
*136 FILLER_9_63
*137 FILLER_9_75
*138 PHY_EDGE_ROW_0_Left_10
*139 PHY_EDGE_ROW_0_Right_0
*140 PHY_EDGE_ROW_1_Left_11
*141 PHY_EDGE_ROW_1_Right_1
*142 PHY_EDGE_ROW_2_Left_12
*143 PHY_EDGE_ROW_2_Right_2
*144 PHY_EDGE_ROW_3_Left_13
*145 PHY_EDGE_ROW_3_Right_3
*146 PHY_EDGE_ROW_4_Left_14
*147 PHY_EDGE_ROW_4_Right_4
*148 PHY_EDGE_ROW_5_Left_15
*149 PHY_EDGE_ROW_5_Right_5
*150 PHY_EDGE_ROW_6_Left_16
*151 PHY_EDGE_ROW_6_Right_6
*152 PHY_EDGE_ROW_7_Left_17
*153 PHY_EDGE_ROW_7_Right_7
*154 PHY_EDGE_ROW_8_Left_18
*155 PHY_EDGE_ROW_8_Right_8
*156 PHY_EDGE_ROW_9_Left_19
*157 PHY_EDGE_ROW_9_Right_9
*158 TAP_TAPCELL_ROW_0_20
*159 TAP_TAPCELL_ROW_0_21
*160 TAP_TAPCELL_ROW_1_22
*161 TAP_TAPCELL_ROW_2_23
*162 TAP_TAPCELL_ROW_3_24
*163 TAP_TAPCELL_ROW_4_25
*164 TAP_TAPCELL_ROW_5_26
*165 TAP_TAPCELL_ROW_6_27
*166 TAP_TAPCELL_ROW_7_28
*167 TAP_TAPCELL_ROW_8_29
*168 TAP_TAPCELL_ROW_9_30
*169 TAP_TAPCELL_ROW_9_31
*170 _24_
*171 _25_
*172 _26_
*173 _27_
*174 _28_
*175 _29_
*176 _30_
*177 _31_
*178 _32_
*179 _33_
*180 _34_
*181 _35_
*182 _36_
*183 _37_
*184 _38_
*185 _39_
*186 _40_
*187 _41_
*188 _42_
*189 _43_
*190 _44_
*191 _45_
*192 _46_
*193 _47_
*194 _48_
*195 _49_
*196 _50_
*197 _51_
*198 _52_
*199 _53_
*200 _54_
*201 _55_
*202 _56_
*203 _57_
*204 input1
*205 input2
*206 input3
*207 input4
*208 input5
*209 input6
*210 input7
*211 input8
*212 output10
*213 output11
*214 output12
*215 output13
*216 output14
*217 output15
*218 output16
*219 output9

*PORTS
A[0] I
A[1] I
A[2] I
A[3] I
B[0] I
B[1] I
B[2] I
B[3] I
P[0] O
P[1] O
P[2] O
P[3] O
P[4] O
P[5] O
P[6] O
P[7] O

*D_NET *1 0.000786235
*CONN
*P A[0] I
*I *204:A I *D sky130_fd_sc_hd__buf_1
*CAP
1 A[0] 0.000393118
2 *204:A 0.000393118
3 *204:A *206:A 0
*RES
1 A[0] *204:A 10.35 
*END

*D_NET *2 0.000598682
*CONN
*P A[1] I
*I *205:A I *D sky130_fd_sc_hd__buf_1
*CAP
1 A[1] 0.000215233
2 *205:A 0.000215233
3 *205:A P[2] 8.53361e-05
4 *205:A *210:A 8.28789e-05
*RES
1 A[1] *205:A 6.37677 
*END

*D_NET *3 0.000844163
*CONN
*P A[2] I
*I *206:A I *D sky130_fd_sc_hd__dlymetal6s2s_1
*CAP
1 A[2] 0.000384174
2 *206:A 0.000384174
3 *206:A *208:A 4.82919e-05
4 *206:A *45:10 2.75229e-05
5 *204:A *206:A 0
*RES
1 A[2] *206:A 10.35 
*END

*D_NET *4 0.000471104
*CONN
*P A[3] I
*I *207:A I *D sky130_fd_sc_hd__buf_1
*CAP
1 A[3] 0.000154362
2 *207:A 0.000154362
3 *207:A P[6] 8.53361e-05
4 *207:A *211:A 7.70436e-05
*RES
1 A[3] *207:A 5.10177 
*END

*D_NET *5 0.00140215
*CONN
*P B[0] I
*I *208:A I *D sky130_fd_sc_hd__buf_1
*CAP
1 B[0] 0.000609353
2 *208:A 0.000609353
3 *208:A P[0] 0
4 *208:A *45:10 0.000135156
5 *206:A *208:A 4.82919e-05
*RES
1 B[0] *208:A 14.115 
*END

*D_NET *6 0.000620504
*CONN
*P B[1] I
*I *209:A I *D sky130_fd_sc_hd__buf_1
*CAP
1 B[1] 0.000295434
2 *209:A 0.000295434
3 *209:A P[1] 2.96366e-05
4 *209:A P[4] 0
*RES
1 B[1] *209:A 7.5993 
*END

*D_NET *7 0.000609193
*CONN
*P B[2] I
*I *210:A I *D sky130_fd_sc_hd__buf_1
*CAP
1 B[2] 0.000221717
2 *210:A 0.000221717
3 *210:A *211:A 8.28789e-05
4 *210:A *25:12 0
5 *205:A *210:A 8.28789e-05
*RES
1 B[2] *210:A 6.12177 
*END

*D_NET *8 0.000482271
*CONN
*P B[3] I
*I *211:A I *D sky130_fd_sc_hd__dlymetal6s2s_1
*CAP
1 B[3] 0.000161174
2 *211:A 0.000161174
3 *207:A *211:A 7.70436e-05
4 *210:A *211:A 8.28789e-05
*RES
1 B[3] *211:A 5.35677 
*END

*D_NET *9 0.000865272
*CONN
*P P[0] O
*I *219:X O *D sky130_fd_sc_hd__buf_2
*CAP
1 P[0] 0.00042972
2 *219:X 0.00042972
3 P[0] *219:A 5.83121e-06
4 *208:A P[0] 0
*RES
1 *219:X P[0] 10.74 
*END

*D_NET *10 0.000712316
*CONN
*P P[1] O
*I *212:X O *D sky130_fd_sc_hd__buf_2
*CAP
1 P[1] 0.000326521
2 *212:X 0.000326521
3 P[1] P[3] 2.96366e-05
4 P[1] *212:A 0
5 *209:A P[1] 2.96366e-05
*RES
1 *212:X P[1] 7.6893 
*END

*D_NET *11 0.000481514
*CONN
*P P[2] O
*I *213:X O *D sky130_fd_sc_hd__buf_2
*CAP
1 P[2] 0.000198089
2 *213:X 0.000198089
3 *205:A P[2] 8.53361e-05
*RES
1 *213:X P[2] 5.16003 
*END

*D_NET *12 0.000590485
*CONN
*P P[3] O
*I *214:X O *D sky130_fd_sc_hd__buf_2
*CAP
1 P[3] 0.000280424
2 *214:X 0.000280424
3 P[1] P[3] 2.96366e-05
*RES
1 *214:X P[3] 7.1793 
*END

*D_NET *13 0.000662578
*CONN
*P P[4] O
*I *215:X O *D sky130_fd_sc_hd__buf_2
*CAP
1 P[4] 0.000331289
2 *215:X 0.000331289
3 *209:A P[4] 0
*RES
1 *215:X P[4] 7.1793 
*END

*D_NET *14 0.000894056
*CONN
*P P[5] O
*I *216:X O *D sky130_fd_sc_hd__buf_2
*CAP
1 P[5] 0.000447028
2 *216:X 0.000447028
*RES
1 *216:X P[5] 11.55 
*END

*D_NET *15 0.000584034
*CONN
*P P[6] O
*I *217:X O *D sky130_fd_sc_hd__buf_2
*CAP
1 P[6] 0.000249349
2 *217:X 0.000249349
3 *207:A P[6] 8.53361e-05
*RES
1 *217:X P[6] 5.92503 
*END

*D_NET *16 0.000894056
*CONN
*P P[7] O
*I *218:X O *D sky130_fd_sc_hd__buf_2
*CAP
1 P[7] 0.000447028
2 *218:X 0.000447028
*RES
1 *218:X P[7] 11.55 
*END

*D_NET *19 0.000385559
*CONN
*I *176:A I *D sky130_fd_sc_hd__xor2_1
*I *172:Y O *D sky130_fd_sc_hd__nand2_1
*CAP
1 *176:A 0.00017776
2 *172:Y 0.00017776
3 *176:A *172:B 3.00381e-05
*RES
1 *172:Y *176:A 6.08 
*END

*D_NET *20 0.00105687
*CONN
*I *175:A2 I *D sky130_fd_sc_hd__a21bo_1
*I *187:B1 I *D sky130_fd_sc_hd__a32o_1
*I *173:X O *D sky130_fd_sc_hd__and3_1
*CAP
1 *175:A2 0
2 *187:B1 0.00016692
3 *173:X 0.000117481
4 *20:12 0.000284402
5 *187:B1 *176:B 1.08758e-05
6 *187:B1 *187:A3 3.45438e-05
7 *187:B1 *187:B2 0.000235867
8 *20:12 *45:23 8.65961e-05
9 *20:12 *58:16 0.000120186
*RES
1 *173:X *20:12 7.775 
2 *20:12 *187:B1 4.9075 
3 *20:12 *175:A2 1.6 
*END

*D_NET *21 0.000565959
*CONN
*I *175:B1_N I *D sky130_fd_sc_hd__a21bo_1
*I *187:A3 I *D sky130_fd_sc_hd__a32o_1
*I *174:X O *D sky130_fd_sc_hd__a22o_1
*CAP
1 *175:B1_N 0
2 *187:A3 0.000136669
3 *174:X 8.90385e-05
4 *21:10 0.000225707
5 *187:A3 *187:A2 3.00381e-05
6 *187:A3 *187:B2 4.99619e-05
7 *21:10 *54:31 0
8 *21:10 *58:16 0
9 *187:B1 *187:A3 3.45438e-05
*RES
1 *174:X *21:10 6.98 
2 *21:10 *187:A3 4.135 
3 *21:10 *175:B1_N 1.6 
*END

*D_NET *22 0.000396163
*CONN
*I *176:B I *D sky130_fd_sc_hd__xor2_1
*I *175:X O *D sky130_fd_sc_hd__a21bo_1
*CAP
1 *176:B 0.000164048
2 *175:X 0.000164048
3 *176:B *187:A1 0
4 *176:B *213:A 5.71917e-05
5 *187:B1 *176:B 1.08758e-05
*RES
1 *175:X *176:B 9.63 
*END

*D_NET *23 0.000574549
*CONN
*I *182:A I *D sky130_fd_sc_hd__xnor2_1
*I *177:Y O *D sky130_fd_sc_hd__nand2_1
*CAP
1 *182:A 0.00017429
2 *177:Y 0.00017429
3 *182:A *192:A2 0.000162311
4 *182:A *37:12 6.36578e-05
5 *182:A *59:10 0
*RES
1 *177:Y *182:A 10.065 
*END

*D_NET *24 0.000427845
*CONN
*I *199:A I *D sky130_fd_sc_hd__xnor2_1
*I *178:Y O *D sky130_fd_sc_hd__nand2_1
*CAP
1 *199:A 7.53105e-05
2 *178:Y 7.53105e-05
3 *199:A *198:A 0.00010816
4 *199:A *198:B 0.000169063
*RES
1 *178:Y *199:A 9.375 
*END

*D_NET *25 0.000930596
*CONN
*I *181:A_N I *D sky130_fd_sc_hd__and2b_1
*I *192:B1 I *D sky130_fd_sc_hd__a31o_1
*I *179:X O *D sky130_fd_sc_hd__and4_1
*CAP
1 *181:A_N 0
2 *192:B1 8.56935e-05
3 *179:X 0.000100448
4 *25:12 0.000186141
5 *192:B1 *181:B 4.82919e-05
6 *192:B1 *192:A3 8.40213e-05
7 *192:B1 *58:8 0.000275548
8 *25:12 *55:38 6.55328e-05
9 *25:12 *58:8 8.49205e-05
10 *210:A *25:12 0
*RES
1 *179:X *25:12 7.775 
2 *25:12 *192:B1 4.12 
3 *25:12 *181:A_N 1.6 
*END

*D_NET *26 0.000761741
*CONN
*I *181:B I *D sky130_fd_sc_hd__and2b_1
*I *192:A3 I *D sky130_fd_sc_hd__a31o_1
*I *180:X O *D sky130_fd_sc_hd__a22o_1
*CAP
1 *181:B 2.03254e-05
2 *192:A3 7.61495e-05
3 *180:X 5.45069e-05
4 *26:10 0.000150982
5 *192:A3 *177:A 5.05437e-05
6 *192:A3 *58:8 1.46828e-05
7 *192:A3 *59:34 0.000160635
8 *26:10 *55:38 0
9 *26:10 *59:10 2.92496e-05
10 *26:10 *59:14 7.23533e-05
11 *192:B1 *181:B 4.82919e-05
12 *192:B1 *192:A3 8.40213e-05
*RES
1 *180:X *26:10 6.725 
2 *26:10 *192:A3 3.79 
3 *26:10 *181:B 2.05 
*END

*D_NET *27 0.000536562
*CONN
*I *182:B I *D sky130_fd_sc_hd__xnor2_1
*I *181:X O *D sky130_fd_sc_hd__and2b_1
*CAP
1 *182:B 0.000171091
2 *181:X 0.000171091
3 *182:B *55:38 0
4 *182:B *59:8 4.66108e-05
5 *182:B *59:10 0.00011852
6 *182:B *59:60 2.92496e-05
*RES
1 *181:X *182:B 10.32 
*END

*D_NET *28 0.0025289
*CONN
*I *197:A1 I *D sky130_fd_sc_hd__a221o_1
*I *189:B1 I *D sky130_fd_sc_hd__o21ai_1
*I *190:A I *D sky130_fd_sc_hd__or3_1
*I *182:Y O *D sky130_fd_sc_hd__xnor2_1
*CAP
1 *197:A1 0
2 *189:B1 0
3 *190:A 5.94406e-05
4 *182:Y 0.000385936
5 *28:18 0.00032387
6 *28:12 0.000650366
7 *190:A *191:B 4.91189e-05
8 *190:A *30:8 5.56629e-05
9 *190:A *30:21 8.76033e-05
10 *190:A *39:12 0
11 *28:12 *197:A2 1.88937e-05
12 *28:12 *198:A 0
13 *28:12 *41:14 0.000580864
14 *28:12 *59:60 0
15 *28:18 *189:A1 3.26889e-05
16 *28:18 *197:A2 2.87193e-05
17 *28:18 *197:B2 7.07711e-05
18 *28:18 *197:C1 9.10513e-05
19 *28:18 *30:21 6.44751e-05
20 *28:18 *35:8 2.94433e-05
*RES
1 *182:Y *28:12 13.805 
2 *28:12 *28:18 4.965 
3 *28:18 *190:A 7.49 
4 *28:18 *189:B1 1.6 
5 *28:12 *197:A1 1.6 
*END

*D_NET *29 0.00196174
*CONN
*I *197:B2 I *D sky130_fd_sc_hd__a221o_1
*I *193:A I *D sky130_fd_sc_hd__nor2_1
*I *194:A I *D sky130_fd_sc_hd__and2_1
*I *184:B I *D sky130_fd_sc_hd__and2_1
*I *185:B I *D sky130_fd_sc_hd__nand2_1
*I *183:X O *D sky130_fd_sc_hd__and2_1
*CAP
1 *197:B2 0.000182002
2 *193:A 0
3 *194:A 0
4 *184:B 0
5 *185:B 0.00010518
6 *183:X 0
7 *29:35 0.000203004
8 *29:28 0.0001455
9 *29:6 0.000319373
10 *29:4 0.000338692
11 *185:B *184:A 0.000107716
12 *185:B *186:B1 0
13 *185:B *44:25 5.53249e-06
14 *197:B2 *189:A2 0
15 *197:B2 *194:B 3.75126e-05
16 *197:B2 *195:A 1.77595e-05
17 *197:B2 *197:A2 9.49237e-05
18 *197:B2 *197:B1 0.00015012
19 *197:B2 *197:C1 1.75875e-05
20 *29:6 *186:B1 4.77757e-05
21 *29:28 *30:8 0
22 *29:35 *194:B 8.52883e-05
23 *29:35 *195:A 3.30017e-05
24 *28:18 *197:B2 7.07711e-05
*RES
1 *183:X *29:4 1.6 
2 *29:4 *29:6 3.21 
3 *29:6 *185:B 8 
4 *29:6 *184:B 1.6 
5 *29:4 *29:28 5.89 
6 *29:28 *194:A 1.6 
7 *29:28 *29:35 0.795 
8 *29:35 *193:A 1.6 
9 *29:35 *197:B2 10.25 
*END

*D_NET *30 0.00180137
*CONN
*I *197:A2 I *D sky130_fd_sc_hd__a221o_1
*I *189:A1 I *D sky130_fd_sc_hd__o21ai_1
*I *190:B I *D sky130_fd_sc_hd__or3_1
*I *184:X O *D sky130_fd_sc_hd__and2_1
*CAP
1 *197:A2 0.000343579
2 *189:A1 1.79451e-05
3 *190:B 0
4 *184:X 0.0001311
5 *30:21 0.000434411
6 *30:8 0.000203987
7 *189:A1 *197:C1 3.26889e-05
8 *197:A2 *197:C1 9.54973e-05
9 *30:8 *189:A2 7.70828e-05
10 *30:21 *189:A2 7.4027e-05
11 *30:21 *39:12 8.08153e-06
12 *190:A *30:8 5.56629e-05
13 *190:A *30:21 8.76033e-05
14 *197:B2 *197:A2 9.49237e-05
15 *28:12 *197:A2 1.88937e-05
16 *28:18 *189:A1 3.26889e-05
17 *28:18 *197:A2 2.87193e-05
18 *28:18 *30:21 6.44751e-05
19 *29:28 *30:8 0
*RES
1 *184:X *30:8 5.745 
2 *30:8 *190:B 3.6 
3 *30:8 *30:21 3.92 
4 *30:21 *189:A1 2.215 
5 *30:21 *197:A2 6.61375 
*END

*D_NET *31 0.00161257
*CONN
*I *188:A I *D sky130_fd_sc_hd__and3_1
*I *200:A1 I *D sky130_fd_sc_hd__a21oi_1
*I *185:Y O *D sky130_fd_sc_hd__nand2_1
*CAP
1 *188:A 0.000367699
2 *200:A1 0
3 *185:Y 0.000200304
4 *31:12 0.000568003
5 *188:A *186:A2 1.91597e-05
6 *188:A *200:B1 0.000413461
7 *188:A *33:14 1.70906e-05
8 *188:A *54:31 2.68526e-05
9 *31:12 *44:25 0
*RES
1 *185:Y *31:12 7.955 
2 *31:12 *200:A1 1.6 
3 *31:12 *188:A 6.55 
*END

*D_NET *32 0.00095007
*CONN
*I *188:B I *D sky130_fd_sc_hd__and3_1
*I *200:A2 I *D sky130_fd_sc_hd__a21oi_1
*I *186:X O *D sky130_fd_sc_hd__a22o_1
*CAP
1 *188:B 5.82018e-05
2 *200:A2 8.24804e-05
3 *186:X 0
4 *32:4 0.000140682
5 *188:B *201:A 3.72677e-05
6 *188:B *34:23 4.77153e-05
7 *188:B *57:30 0.000121019
8 *200:A2 *200:B1 6.34549e-05
9 *200:A2 *201:A 0.000275294
10 *200:A2 *57:30 0.000123955
*RES
1 *186:X *32:4 1.6 
2 *32:4 *200:A2 4.6975 
3 *32:4 *188:B 3.1 
*END

*D_NET *33 0.00205907
*CONN
*I *188:C I *D sky130_fd_sc_hd__and3_1
*I *200:B1 I *D sky130_fd_sc_hd__a21oi_1
*I *187:X O *D sky130_fd_sc_hd__a32o_1
*CAP
1 *188:C 0
2 *200:B1 0.000119515
3 *187:X 0.000452961
4 *33:14 0.000572476
5 *200:B1 *186:A2 0.00018983
6 *200:B1 *201:A 9.27255e-06
7 *200:B1 *57:26 5.05437e-05
8 *200:B1 *57:30 2.01565e-05
9 *33:14 *186:A2 6.21477e-06
10 *33:14 *187:A2 2.77283e-05
11 *33:14 *34:23 8.90632e-05
12 *33:14 *45:19 0
13 *33:14 *45:45 0
14 *33:14 *54:44 2.73058e-05
15 *188:A *200:B1 0.000413461
16 *188:A *33:14 1.70906e-05
17 *200:A2 *200:B1 6.34549e-05
*RES
1 *187:X *33:14 11.21 
2 *33:14 *200:B1 6.13 
3 *33:14 *188:C 1.6 
*END

*D_NET *34 0.00466619
*CONN
*I *197:B1 I *D sky130_fd_sc_hd__a221o_1
*I *189:A2 I *D sky130_fd_sc_hd__o21ai_1
*I *190:C I *D sky130_fd_sc_hd__or3_1
*I *201:A I *D sky130_fd_sc_hd__nor2_1
*I *188:X O *D sky130_fd_sc_hd__and3_1
*CAP
1 *197:B1 0.00028084
2 *189:A2 7.48504e-05
3 *190:C 0
4 *201:A 0.000510111
5 *188:X 0
6 *34:29 0.00042101
7 *34:23 0.00101231
8 *34:4 0.000895418
9 *189:A2 *39:12 4.05358e-05
10 *201:A *201:B 0.000239813
11 *201:A *57:12 9.50342e-06
12 *201:A *57:26 4.60584e-05
13 *34:23 *186:B1 0
14 *34:23 *54:44 0.000168937
15 *34:23 *57:26 0
16 *34:29 *194:B 0.000196052
17 *34:29 *195:A 4.31222e-06
18 *34:29 *39:12 6.60261e-06
19 *188:B *201:A 3.72677e-05
20 *188:B *34:23 4.77153e-05
21 *197:B2 *189:A2 0
22 *197:B2 *197:B1 0.00015012
23 *200:A2 *201:A 0.000275294
24 *200:B1 *201:A 9.27255e-06
25 *30:8 *189:A2 7.70828e-05
26 *30:21 *189:A2 7.4027e-05
27 *33:14 *34:23 8.90632e-05
*RES
1 *188:X *34:4 1.6 
2 *34:4 *201:A 12.44 
3 *34:4 *34:23 8.675 
4 *34:23 *34:29 6.515 
5 *34:29 *190:C 1.6 
6 *34:29 *189:A2 7.685 
7 *34:23 *197:B1 8.22 
*END

*D_NET *35 0.000613505
*CONN
*I *191:A I *D sky130_fd_sc_hd__and2_1
*I *196:A I *D sky130_fd_sc_hd__xnor2_1
*I *189:Y O *D sky130_fd_sc_hd__o21ai_1
*CAP
1 *191:A 0
2 *196:A 0.000175842
3 *189:Y 6.81425e-05
4 *35:8 0.000243984
5 *196:A *191:B 9.50342e-06
6 *196:A *196:B 8.65905e-05
7 *28:18 *35:8 2.94433e-05
*RES
1 *189:Y *35:8 2.755 
2 *35:8 *196:A 8.63 
3 *35:8 *191:A 1.6 
*END

*D_NET *36 0.000210361
*CONN
*I *191:B I *D sky130_fd_sc_hd__and2_1
*I *190:X O *D sky130_fd_sc_hd__or3_1
*CAP
1 *191:B 7.58696e-05
2 *190:X 7.58696e-05
3 *191:B *39:12 0
4 *190:A *191:B 4.91189e-05
5 *196:A *191:B 9.50342e-06
*RES
1 *190:X *191:B 8.835 
*END

*D_NET *37 0.00172331
*CONN
*I *193:B I *D sky130_fd_sc_hd__nor2_1
*I *194:B I *D sky130_fd_sc_hd__and2_1
*I *192:X O *D sky130_fd_sc_hd__a31o_1
*CAP
1 *193:B 0
2 *194:B 7.50105e-05
3 *192:X 0.000574938
4 *37:12 0.000649949
5 *194:B *195:A 1.77683e-05
6 *37:12 *192:A2 1.94805e-05
7 *37:12 *195:A 3.64998e-06
8 *182:A *37:12 6.36578e-05
9 *197:B2 *194:B 3.75126e-05
10 *29:35 *194:B 8.52883e-05
11 *34:29 *194:B 0.000196052
*RES
1 *192:X *37:12 14.405 
2 *37:12 *194:B 4.15 
3 *37:12 *193:B 1.6 
*END

*D_NET *38 0.000691295
*CONN
*I *195:A I *D sky130_fd_sc_hd__nor2_1
*I *193:Y O *D sky130_fd_sc_hd__nor2_1
*CAP
1 *195:A 0.000271902
2 *193:Y 0.000271902
3 *195:A *39:12 7.09999e-05
4 *194:B *195:A 1.77683e-05
5 *197:B2 *195:A 1.77595e-05
6 *29:35 *195:A 3.30017e-05
7 *34:29 *195:A 4.31222e-06
8 *37:12 *195:A 3.64998e-06
*RES
1 *193:Y *195:A 11.01 
*END

*D_NET *39 0.00076842
*CONN
*I *195:B I *D sky130_fd_sc_hd__nor2_1
*I *197:C1 I *D sky130_fd_sc_hd__a221o_1
*I *194:X O *D sky130_fd_sc_hd__and2_1
*CAP
1 *195:B 0
2 *197:C1 6.05537e-05
3 *194:X 0.000142134
4 *39:12 0.000202688
5 *189:A1 *197:C1 3.26889e-05
6 *189:A2 *39:12 4.05358e-05
7 *190:A *39:12 0
8 *191:B *39:12 0
9 *195:A *39:12 7.09999e-05
10 *197:A2 *197:C1 9.54973e-05
11 *197:B2 *197:C1 1.75875e-05
12 *28:18 *197:C1 9.10513e-05
13 *30:21 *39:12 8.08153e-06
14 *34:29 *39:12 6.60261e-06
*RES
1 *194:X *39:12 7.685 
2 *39:12 *197:C1 3.805 
3 *39:12 *195:B 1.6 
*END

*D_NET *40 0.000694084
*CONN
*I *196:B I *D sky130_fd_sc_hd__xnor2_1
*I *195:Y O *D sky130_fd_sc_hd__nor2_1
*CAP
1 *196:B 0.000303747
2 *195:Y 0.000303747
3 *196:A *196:B 8.65905e-05
*RES
1 *195:Y *196:B 12.045 
*END

*D_NET *41 0.00198256
*CONN
*I *199:B I *D sky130_fd_sc_hd__xnor2_1
*I *198:C I *D sky130_fd_sc_hd__and3_1
*I *197:X O *D sky130_fd_sc_hd__a221o_1
*CAP
1 *199:B 0.000149449
2 *198:C 0
3 *197:X 0.000476845
4 *41:14 0.000626294
5 *199:B *198:A 0.000118685
6 *199:B *198:B 1.33293e-05
7 *41:14 *198:A 1.70906e-05
8 *28:12 *41:14 0.000580864
*RES
1 *197:X *41:14 12.26 
2 *41:14 *198:C 1.6 
3 *41:14 *199:B 3.895 
*END

*D_NET *42 0.000711982
*CONN
*I *201:B I *D sky130_fd_sc_hd__nor2_1
*I *200:Y O *D sky130_fd_sc_hd__a21oi_1
*CAP
1 *201:B 9.54714e-05
2 *200:Y 9.54714e-05
3 *201:B *203:A 5.17772e-05
4 *201:B *214:A 7.00889e-06
5 *201:B *57:26 0.00022244
6 *201:A *201:B 0.000239813
*RES
1 *200:Y *201:B 6.89 
*END

*D_NET *43 0.00034062
*CONN
*I *202:A I *D sky130_fd_sc_hd__clkbuf_1
*I *171:X O *D sky130_fd_sc_hd__and2_1
*CAP
1 *202:A 0.000121331
2 *171:X 0.000121331
3 *202:A *45:10 7.21296e-06
4 *202:A *56:12 7.23602e-05
5 *202:A *56:19 1.83847e-05
*RES
1 *171:X *202:A 9.285 
*END

*D_NET *44 0.00124543
*CONN
*I *184:A I *D sky130_fd_sc_hd__and2_1
*I *185:A I *D sky130_fd_sc_hd__nand2_1
*I *203:A I *D sky130_fd_sc_hd__clkbuf_1
*I *170:X O *D sky130_fd_sc_hd__and2_1
*CAP
1 *184:A 6.11599e-05
2 *185:A 0
3 *203:A 0.000231494
4 *170:X 5.80115e-05
5 *44:25 0.000123915
6 *44:6 0.000352261
7 *184:A *57:12 7.34286e-05
8 *203:A *214:A 4.49466e-05
9 *203:A *57:26 3.72916e-05
10 *44:6 *57:26 3.23663e-05
11 *44:25 *186:B1 0
12 *44:25 *57:12 6.55328e-05
13 *185:B *184:A 0.000107716
14 *185:B *44:25 5.53249e-06
15 *201:B *203:A 5.17772e-05
16 *31:12 *44:25 0
*RES
1 *170:X *44:6 2.395 
2 *44:6 *203:A 5.395 
3 *44:6 *44:25 3.38 
4 *44:25 *185:A 3.6 
5 *44:25 *184:A 5.745 
*END

*D_NET *45 0.00576635
*CONN
*I *186:B2 I *D sky130_fd_sc_hd__a22o_1
*I *170:B I *D sky130_fd_sc_hd__and2_1
*I *174:B2 I *D sky130_fd_sc_hd__a22o_1
*I *173:B I *D sky130_fd_sc_hd__and3_1
*I *171:A I *D sky130_fd_sc_hd__and2_1
*I *204:X O *D sky130_fd_sc_hd__buf_1
*CAP
1 *186:B2 1.11075e-05
2 *170:B 0.000343347
3 *174:B2 4.29105e-05
4 *173:B 2.08101e-05
5 *171:A 0
6 *204:X 0.000261205
7 *45:45 0.00117214
8 *45:23 0.000404389
9 *45:19 0.00131498
10 *45:10 0.000417824
11 *170:B *57:12 1.22505e-05
12 *174:B2 *173:A 0.00012657
13 *174:B2 *57:56 0
14 *186:B2 *186:B1 9.5799e-06
15 *45:10 *56:12 0.000426656
16 *45:19 *187:A1 0
17 *45:19 *54:16 0.000118527
18 *45:19 *54:31 0.000175894
19 *45:19 *56:12 5.53249e-06
20 *45:23 *173:A 5.34552e-05
21 *45:23 *57:30 0.000467068
22 *45:23 *57:56 7.66083e-05
23 *45:45 *54:31 4.90031e-05
24 *202:A *45:10 7.21296e-06
25 *206:A *45:10 2.75229e-05
26 *208:A *45:10 0.000135156
27 *20:12 *45:23 8.65961e-05
28 *33:14 *45:19 0
29 *33:14 *45:45 0
*RES
1 *204:X *45:10 10.08 
2 *45:10 *171:A 3.6 
3 *45:10 *45:19 3.675 
4 *45:19 *45:23 9.005 
5 *45:23 *173:B 1.96 
6 *45:23 *174:B2 3.355 
7 *45:19 *45:45 2.21277 
8 *45:45 *170:B 4.77837 
9 *45:45 *186:B2 4.3325 
*END

*D_NET *46 0.000641777
*CONN
*I *212:A I *D sky130_fd_sc_hd__buf_2
*I *203:X O *D sky130_fd_sc_hd__clkbuf_1
*CAP
1 *212:A 0.00030302
2 *203:X 0.00030302
3 *212:A *214:A 3.57358e-05
4 P[1] *212:A 0
*RES
1 *203:X *212:A 11.1 
*END

*D_NET *47 0.000855598
*CONN
*I *213:A I *D sky130_fd_sc_hd__buf_2
*I *176:X O *D sky130_fd_sc_hd__xor2_1
*CAP
1 *213:A 0.000399203
2 *176:X 0.000399203
3 *176:B *213:A 5.71917e-05
*RES
1 *176:X *213:A 13.59 
*END

*D_NET *48 0.00100517
*CONN
*I *214:A I *D sky130_fd_sc_hd__buf_2
*I *201:Y O *D sky130_fd_sc_hd__nor2_1
*CAP
1 *214:A 0.000458738
2 *201:Y 0.000458738
3 *201:B *214:A 7.00889e-06
4 *203:A *214:A 4.49466e-05
5 *212:A *214:A 3.57358e-05
*RES
1 *201:Y *214:A 13.08 
*END

*D_NET *49 0.000700551
*CONN
*I *215:A I *D sky130_fd_sc_hd__buf_2
*I *191:X O *D sky130_fd_sc_hd__and2_1
*CAP
1 *215:A 0.000350276
2 *191:X 0.000350276
*RES
1 *191:X *215:A 8.48 
*END

*D_NET *50 0.000198381
*CONN
*I *216:A I *D sky130_fd_sc_hd__buf_2
*I *196:Y O *D sky130_fd_sc_hd__xnor2_1
*CAP
1 *216:A 9.91904e-05
2 *196:Y 9.91904e-05
*RES
1 *196:Y *216:A 8.835 
*END

*D_NET *51 0.000760915
*CONN
*I *217:A I *D sky130_fd_sc_hd__buf_2
*I *199:Y O *D sky130_fd_sc_hd__xnor2_1
*CAP
1 *217:A 0.000376192
2 *199:Y 0.000376192
3 *217:A *198:B 8.53113e-06
4 *217:A *218:A 0
*RES
1 *199:Y *217:A 12.99 
*END

*D_NET *52 0.000198381
*CONN
*I *218:A I *D sky130_fd_sc_hd__buf_2
*I *198:X O *D sky130_fd_sc_hd__and3_1
*CAP
1 *218:A 9.91904e-05
2 *198:X 9.91904e-05
3 *217:A *218:A 0
*RES
1 *198:X *218:A 8.835 
*END

*D_NET *53 0.00209163
*CONN
*I *179:B I *D sky130_fd_sc_hd__and4_1
*I *173:C I *D sky130_fd_sc_hd__and3_1
*I *180:A1 I *D sky130_fd_sc_hd__a22o_1
*I *174:A2 I *D sky130_fd_sc_hd__a22o_1
*I *205:X O *D sky130_fd_sc_hd__buf_1
*CAP
1 *179:B 0
2 *173:C 0
3 *180:A1 7.43004e-05
4 *174:A2 2.9153e-05
5 *205:X 0.000343234
6 *53:16 0.0002823
7 *53:14 0.00027609
8 *53:6 0.000440478
9 *174:A2 *173:A 9.72742e-06
10 *174:A2 *57:56 9.53428e-06
11 *180:A1 *179:A 9.50342e-06
12 *180:A1 *180:B1 0.000133212
13 *180:A1 *57:34 0.000117832
14 *180:A1 *58:12 6.10014e-05
15 *53:6 *179:C 2.75229e-05
16 *53:6 *180:B1 1.61831e-05
17 *53:14 *173:A 4.49657e-05
18 *53:14 *58:12 0
19 *53:16 *173:A 0.00020041
20 *53:16 *57:56 1.61831e-05
*RES
1 *205:X *53:6 5.5 
2 *53:6 *53:14 5.38 
3 *53:14 *53:16 2.46 
4 *53:16 *174:A2 2.215 
5 *53:16 *180:A1 7.775 
6 *53:14 *173:C 1.6 
7 *53:6 *179:B 1.6 
*END

*D_NET *54 0.00537151
*CONN
*I *172:B I *D sky130_fd_sc_hd__nand2_1
*I *192:A2 I *D sky130_fd_sc_hd__a31o_1
*I *177:B I *D sky130_fd_sc_hd__nand2_1
*I *183:A I *D sky130_fd_sc_hd__and2_1
*I *186:A2 I *D sky130_fd_sc_hd__a22o_1
*I *187:A2 I *D sky130_fd_sc_hd__a32o_1
*I *206:X O *D sky130_fd_sc_hd__dlymetal6s2s_1
*CAP
1 *172:B 0.000181596
2 *192:A2 0.00012915
3 *177:B 0
4 *183:A 3.86621e-05
5 *186:A2 4.76814e-05
6 *187:A2 0.000114106
7 *206:X 0.00032689
8 *54:55 0.000365614
9 *54:44 0.000470106
10 *54:31 0.000470087
11 *54:16 0.000402507
12 *54:12 0.000569463
13 *172:B *56:19 0.000199833
14 *183:A *59:34 4.80285e-05
15 *186:A2 *57:30 0.000232944
16 *192:A2 *177:A 0.000198939
17 *192:A2 *58:12 3.09164e-05
18 *192:A2 *59:10 7.21296e-06
19 *192:A2 *59:34 2.26018e-05
20 *54:16 *187:A1 0
21 *54:31 *57:30 0.000259653
22 *54:55 *59:34 0.000204195
23 *176:A *172:B 3.00381e-05
24 *182:A *192:A2 0.000162311
25 *187:A3 *187:A2 3.00381e-05
26 *188:A *186:A2 1.91597e-05
27 *188:A *54:31 2.68526e-05
28 *200:B1 *186:A2 0.00018983
29 *21:10 *54:31 0
30 *33:14 *186:A2 6.21477e-06
31 *33:14 *187:A2 2.77283e-05
32 *33:14 *54:44 2.73058e-05
33 *34:23 *54:44 0.000168937
34 *37:12 *192:A2 1.94805e-05
35 *45:19 *54:16 0.000118527
36 *45:19 *54:31 0.000175894
37 *45:45 *54:31 4.90031e-05
*RES
1 *206:X *54:12 10.175 
2 *54:12 *54:16 3.38 
3 *54:16 *187:A2 5.43 
4 *54:16 *54:31 7.175 
5 *54:31 *186:A2 3.775 
6 *54:31 *54:44 7.93 
7 *54:44 *183:A 2.395 
8 *54:44 *54:55 4.95 
9 *54:55 *177:B 1.6 
10 *54:55 *192:A2 9.095 
11 *54:12 *172:B 4.825 
*END

*D_NET *55 0.00364381
*CONN
*I *180:B1 I *D sky130_fd_sc_hd__a22o_1
*I *179:D I *D sky130_fd_sc_hd__and4_1
*I *178:B I *D sky130_fd_sc_hd__nand2_1
*I *198:B I *D sky130_fd_sc_hd__and3_1
*I *207:X O *D sky130_fd_sc_hd__buf_1
*CAP
1 *180:B1 0.000253222
2 *179:D 0
3 *178:B 0
4 *198:B 0.000336199
5 *207:X 0.000248109
6 *55:38 0.000656994
7 *55:10 0.00041239
8 *55:8 0.000728072
9 *180:B1 *179:A 0.00027299
10 *180:B1 *179:C 0.000201508
11 *180:B1 *180:A2 4.82863e-05
12 *198:B *198:A 7.57467e-05
13 *198:B *59:60 4.43871e-06
14 *55:38 *59:10 0
15 *55:38 *59:14 0
16 *55:38 *59:60 0
17 *180:A1 *180:B1 0.000133212
18 *182:B *55:38 0
19 *199:A *198:B 0.000169063
20 *199:B *198:B 1.33293e-05
21 *217:A *198:B 8.53113e-06
22 *25:12 *55:38 6.55328e-05
23 *26:10 *55:38 0
24 *53:6 *180:B1 1.61831e-05
*RES
1 *207:X *55:8 5.425 
2 *55:8 *55:10 1.14 
3 *55:10 *198:B 11.675 
4 *55:10 *178:B 1.6 
5 *55:8 *55:38 10.48 
6 *55:38 *179:D 1.6 
7 *55:38 *180:B1 7.96 
*END

*D_NET *56 0.00180509
*CONN
*I *172:A I *D sky130_fd_sc_hd__nand2_1
*I *187:A1 I *D sky130_fd_sc_hd__a32o_1
*I *171:B I *D sky130_fd_sc_hd__and2_1
*I *208:X O *D sky130_fd_sc_hd__buf_1
*CAP
1 *172:A 0
2 *187:A1 0.000119332
3 *171:B 0
4 *208:X 0.000350859
5 *56:19 0.000190304
6 *56:12 0.00042183
7 *172:B *56:19 0.000199833
8 *176:B *187:A1 0
9 *202:A *56:12 7.23602e-05
10 *202:A *56:19 1.83847e-05
11 *45:10 *56:12 0.000426656
12 *45:19 *187:A1 0
13 *45:19 *56:12 5.53249e-06
14 *54:16 *187:A1 0
*RES
1 *208:X *56:12 11.135 
2 *56:12 *171:B 1.6 
3 *56:12 *56:19 1.83 
4 *56:19 *187:A1 7.235 
5 *56:19 *172:A 1.6 
*END

*D_NET *57 0.00625934
*CONN
*I *170:A I *D sky130_fd_sc_hd__and2_1
*I *186:A1 I *D sky130_fd_sc_hd__a22o_1
*I *173:A I *D sky130_fd_sc_hd__and3_1
*I *174:A1 I *D sky130_fd_sc_hd__a22o_1
*I *179:A I *D sky130_fd_sc_hd__and4_1
*I *180:B2 I *D sky130_fd_sc_hd__a22o_1
*I *209:X O *D sky130_fd_sc_hd__buf_1
*CAP
1 *170:A 0
2 *186:A1 0
3 *173:A 9.22702e-05
4 *174:A1 0
5 *179:A 0.000179243
6 *180:B2 0
7 *209:X 0.000674637
8 *57:56 0.000130853
9 *57:34 0.000303728
10 *57:30 0.000496678
11 *57:26 0.000638238
12 *57:12 0.000979264
13 *179:A *58:12 1.52945e-05
14 *57:26 *186:B1 8.7152e-06
15 *57:34 *58:12 5.98004e-06
16 *57:34 *58:16 2.24423e-05
17 *170:B *57:12 1.22505e-05
18 *174:A2 *173:A 9.72742e-06
19 *174:A2 *57:56 9.53428e-06
20 *174:B2 *173:A 0.00012657
21 *174:B2 *57:56 0
22 *180:A1 *179:A 9.50342e-06
23 *180:A1 *57:34 0.000117832
24 *180:B1 *179:A 0.00027299
25 *184:A *57:12 7.34286e-05
26 *186:A2 *57:30 0.000232944
27 *188:B *57:30 0.000121019
28 *200:A2 *57:30 0.000123955
29 *200:B1 *57:26 5.05437e-05
30 *200:B1 *57:30 2.01565e-05
31 *201:A *57:12 9.50342e-06
32 *201:A *57:26 4.60584e-05
33 *201:B *57:26 0.00022244
34 *203:A *57:26 3.72916e-05
35 *34:23 *57:26 0
36 *44:6 *57:26 3.23663e-05
37 *44:25 *57:12 6.55328e-05
38 *45:23 *173:A 5.34552e-05
39 *45:23 *57:30 0.000467068
40 *45:23 *57:56 7.66083e-05
41 *53:14 *173:A 4.49657e-05
42 *53:16 *173:A 0.00020041
43 *53:16 *57:56 1.61831e-05
44 *54:31 *57:30 0.000259653
*RES
1 *209:X *57:12 14.645 
2 *57:12 *57:26 9.43 
3 *57:26 *57:30 9.09 
4 *57:30 *57:34 4.145 
5 *57:34 *180:B2 3.6 
6 *57:34 *179:A 6.735 
7 *57:30 *57:56 1.155 
8 *57:56 *174:A1 1.6 
9 *57:56 *173:A 4.93 
10 *57:26 *186:A1 1.6 
11 *57:12 *170:A 1.6 
*END

*D_NET *58 0.00295234
*CONN
*I *192:A1 I *D sky130_fd_sc_hd__a31o_1
*I *177:A I *D sky130_fd_sc_hd__nand2_1
*I *174:B1 I *D sky130_fd_sc_hd__a22o_1
*I *175:A1 I *D sky130_fd_sc_hd__a21bo_1
*I *187:B2 I *D sky130_fd_sc_hd__a32o_1
*I *210:X O *D sky130_fd_sc_hd__buf_1
*CAP
1 *192:A1 0
2 *177:A 5.68526e-05
3 *174:B1 0
4 *175:A1 0
5 *187:B2 7.17769e-05
6 *210:X 0.000361092
7 *58:16 0.000204281
8 *58:12 0.000317546
9 *58:8 0.000602987
10 *177:A *59:34 6.47326e-05
11 *58:12 *59:10 3.50033e-05
12 *58:12 *59:14 7.17811e-05
13 *179:A *58:12 1.52945e-05
14 *180:A1 *58:12 6.10014e-05
15 *187:A3 *187:B2 4.99619e-05
16 *187:B1 *187:B2 0.000235867
17 *192:A2 *177:A 0.000198939
18 *192:A2 *58:12 3.09164e-05
19 *192:A3 *177:A 5.05437e-05
20 *192:A3 *58:8 1.46828e-05
21 *192:B1 *58:8 0.000275548
22 *20:12 *58:16 0.000120186
23 *21:10 *58:16 0
24 *25:12 *58:8 8.49205e-05
25 *53:14 *58:12 0
26 *57:34 *58:12 5.98004e-06
27 *57:34 *58:16 2.24423e-05
*RES
1 *210:X *58:8 8.185 
2 *58:8 *58:12 5.93 
3 *58:12 *58:16 4.4 
4 *58:16 *187:B2 3.79 
5 *58:16 *175:A1 1.6 
6 *58:12 *174:B1 3.6 
7 *58:8 *177:A 3.775 
8 *58:8 *192:A1 1.6 
*END

*D_NET *59 0.00589668
*CONN
*I *198:A I *D sky130_fd_sc_hd__and3_1
*I *178:A I *D sky130_fd_sc_hd__nand2_1
*I *183:B I *D sky130_fd_sc_hd__and2_1
*I *186:B1 I *D sky130_fd_sc_hd__a22o_1
*I *179:C I *D sky130_fd_sc_hd__and4_1
*I *180:A2 I *D sky130_fd_sc_hd__a22o_1
*I *211:X O *D sky130_fd_sc_hd__dlymetal6s2s_1
*CAP
1 *198:A 0.000249118
2 *178:A 3.37454e-05
3 *183:B 2.09808e-05
4 *186:B1 0.000356758
5 *179:C 6.56485e-05
6 *180:A2 2.03941e-05
7 *211:X 0.000331705
8 *59:60 0.000420503
9 *59:34 0.00113138
10 *59:14 0.000156072
11 *59:10 0.000943509
12 *59:8 0.000589187
13 *177:A *59:34 6.47326e-05
14 *180:B1 *179:C 0.000201508
15 *180:B1 *180:A2 4.82863e-05
16 *182:A *59:10 0
17 *182:B *59:8 4.66108e-05
18 *182:B *59:10 0.00011852
19 *182:B *59:60 2.92496e-05
20 *183:A *59:34 4.80285e-05
21 *185:B *186:B1 0
22 *186:B2 *186:B1 9.5799e-06
23 *192:A2 *59:10 7.21296e-06
24 *192:A2 *59:34 2.26018e-05
25 *192:A3 *59:34 0.000160635
26 *198:B *198:A 7.57467e-05
27 *198:B *59:60 4.43871e-06
28 *199:A *198:A 0.00010816
29 *199:B *198:A 0.000118685
30 *26:10 *59:10 2.92496e-05
31 *26:10 *59:14 7.23533e-05
32 *28:12 *198:A 0