*SPEF "ieee 1481-1999"
*DESIGN "mult4_SarsaNStepsRuido_e9_SarsaNStepsRuido_e9_SarsaNStepsRuido_e9_SARSA_RUIDO_e9"
*DATE "12:03:09 Wednesday September 17, 2025"
*VENDOR "The OpenROAD Project"
*PROGRAM "OpenROAD"
*VERSION "edf00dff99f6c40d67a30c0e22a8191c5d2ed9d6"
*DESIGN_FLOW "NAME_SCOPE LOCAL" "PIN_CAP NONE"
*DIVIDER /
*DELIMITER :
*BUS_DELIMITER []
*T_UNIT 1 NS
*C_UNIT 1 PF
*R_UNIT 1 OHM
*L_UNIT 1 HENRY

*NAME_MAP
*1 A[0]
*2 A[1]
*3 A[2]
*4 A[3]
*5 B[0]
*6 B[1]
*7 B[2]
*8 B[3]
*9 net16
*10 P[1]
*11 P[2]
*12 P[3]
*13 P[4]
*14 P[5]
*15 P[6]
*16 P[7]
*19 _00_
*20 _01_
*21 _02_
*22 _03_
*23 _04_
*24 _05_
*25 _06_
*26 _07_
*27 _08_
*28 _09_
*29 _10_
*30 _11_
*31 _12_
*32 _13_
*33 _14_
*34 _15_
*35 _16_
*36 _17_
*37 _18_
*38 _19_
*39 _20_
*40 _21_
*41 _22_
*42 _23_
*43 _24_
*44 _25_
*45 _26_
*46 _27_
*47 _28_
*48 _29_
*49 _30_
*50 _31_
*51 _32_
*52 _33_
*53 _34_
*54 _35_
*55 _36_
*56 _37_
*57 _38_
*58 _39_
*59 _40_
*60 _41_
*61 _42_
*62 _43_
*63 _44_
*64 _45_
*65 net1
*66 net10
*67 net11
*68 net12
*69 net13
*70 net14
*71 net15
*72 net2
*73 net3
*74 net4
*75 net5
*76 net6
*77 net7
*78 net8
*79 net9
*80 FILLER_0_23
*81 FILLER_0_29
*82 FILLER_0_3
*83 FILLER_0_49
*84 FILLER_0_57
*85 FILLER_0_69
*86 FILLER_1_15
*87 FILLER_1_3
*88 FILLER_1_57
*89 FILLER_1_70
*90 FILLER_2_17
*91 FILLER_2_25
*92 FILLER_2_29
*93 FILLER_2_3
*94 FILLER_2_41
*95 FILLER_2_57
*96 FILLER_2_69
*97 FILLER_2_9
*98 FILLER_3_3
*99 FILLER_3_41
*100 FILLER_3_53
*101 FILLER_3_57
*102 FILLER_3_7
*103 FILLER_3_78
*104 FILLER_4_19
*105 FILLER_4_27
*106 FILLER_4_29
*107 FILLER_4_51
*108 FILLER_4_63
*109 FILLER_4_7
*110 FILLER_4_74
*111 FILLER_5_15
*112 FILLER_5_28
*113 FILLER_5_40
*114 FILLER_5_51
*115 FILLER_5_55
*116 FILLER_5_64
*117 FILLER_5_7
*118 FILLER_5_77
*119 FILLER_6_18
*120 FILLER_6_26
*121 FILLER_6_41
*122 FILLER_6_48
*123 FILLER_6_60
*124 FILLER_6_72
*125 FILLER_6_76
*126 FILLER_7_19
*127 FILLER_7_28
*128 FILLER_7_40
*129 FILLER_7_53
*130 FILLER_7_57
*131 FILLER_7_69
*132 FILLER_7_7
*133 FILLER_8_11
*134 FILLER_8_19
*135 FILLER_8_29
*136 FILLER_8_3
*137 FILLER_8_33
*138 FILLER_8_45
*139 FILLER_8_53
*140 FILLER_8_61
*141 FILLER_8_74
*142 FILLER_8_80
*143 FILLER_9_19
*144 FILLER_9_27
*145 FILLER_9_29
*146 FILLER_9_37
*147 FILLER_9_42
*148 FILLER_9_54
*149 FILLER_9_57
*150 FILLER_9_69
*151 FILLER_9_7
*152 PHY_EDGE_ROW_0_Left_10
*153 PHY_EDGE_ROW_0_Right_0
*154 PHY_EDGE_ROW_1_Left_11
*155 PHY_EDGE_ROW_1_Right_1
*156 PHY_EDGE_ROW_2_Left_12
*157 PHY_EDGE_ROW_2_Right_2
*158 PHY_EDGE_ROW_3_Left_13
*159 PHY_EDGE_ROW_3_Right_3
*160 PHY_EDGE_ROW_4_Left_14
*161 PHY_EDGE_ROW_4_Right_4
*162 PHY_EDGE_ROW_5_Left_15
*163 PHY_EDGE_ROW_5_Right_5
*164 PHY_EDGE_ROW_6_Left_16
*165 PHY_EDGE_ROW_6_Right_6
*166 PHY_EDGE_ROW_7_Left_17
*167 PHY_EDGE_ROW_7_Right_7
*168 PHY_EDGE_ROW_8_Left_18
*169 PHY_EDGE_ROW_8_Right_8
*170 PHY_EDGE_ROW_9_Left_19
*171 PHY_EDGE_ROW_9_Right_9
*172 TAP_TAPCELL_ROW_0_20
*173 TAP_TAPCELL_ROW_0_21
*174 TAP_TAPCELL_ROW_1_22
*175 TAP_TAPCELL_ROW_2_23
*176 TAP_TAPCELL_ROW_3_24
*177 TAP_TAPCELL_ROW_4_25
*178 TAP_TAPCELL_ROW_5_26
*179 TAP_TAPCELL_ROW_6_27
*180 TAP_TAPCELL_ROW_7_28
*181 TAP_TAPCELL_ROW_8_29
*182 TAP_TAPCELL_ROW_9_30
*183 TAP_TAPCELL_ROW_9_31
*184 _46_
*185 _47_
*186 _48_
*187 _49_
*188 _50_
*189 _51_
*190 _52_
*191 _53_
*192 _54_
*193 _55_
*194 _56_
*195 _57_
*196 _58_
*197 _59_
*198 _60_
*199 _61_
*200 _62_
*201 _63_
*202 _64_
*203 _65_
*204 _66_
*205 _67_
*206 _68_
*207 _69_
*208 _70_
*209 _71_
*210 _72_
*211 _73_
*212 _74_
*213 _75_
*214 _76_
*215 _77_
*216 _78_
*217 _79_
*218 _80_
*219 _81_
*220 _82_
*221 _83_
*222 _84_
*223 _85_
*224 _86_
*225 _87_
*226 _88_
*227 _89_
*228 _90_
*229 _91_
*230 _92_
*231 _93_
*232 _94_
*233 _95_
*234 _96_
*235 _97_
*236 _98_
*237 input1
*238 input2
*239 input3
*240 input4
*241 input5
*242 input6
*243 input7
*244 input8
*245 mult4_SarsaNStepsRuido_e9_SarsaNStepsRuido_e9_SarsaNStepsRuido_e9_SARSA_RUIDO_e9_16
*246 output10
*247 output11
*248 output12
*249 output13
*250 output14
*251 output15
*252 output9

*PORTS
A[0] I
A[1] I
A[2] I
A[3] I
B[0] I
B[1] I
B[2] I
B[3] I
P[0] O
P[1] O
P[2] O
P[3] O
P[4] O
P[5] O
P[6] O
P[7] O

*D_NET *1 0.00114853
*CONN
*P A[0] I
*I *237:A I *D sky130_fd_sc_hd__buf_1
*CAP
1 A[0] 0.000472195
2 *237:A 0.000472195
3 *237:A P[1] 0
4 *237:A *189:B1 4.1331e-06
5 *237:A *252:A 5.71472e-05
6 *237:A *75:8 0.000142856
7 *237:A *75:23 0
*RES
1 A[0] *237:A 23.3179 
*END

*D_NET *2 0.000931337
*CONN
*P A[1] I
*I *238:A I *D sky130_fd_sc_hd__clkbuf_2
*CAP
1 A[1] 0.000456023
2 *238:A 0.000456023
3 *238:A *243:A 0
4 *238:A *72:10 1.92905e-05
*RES
1 A[1] *238:A 22.3536 
*END

*D_NET *3 0.00072753
*CONN
*P A[2] I
*I *239:A I *D sky130_fd_sc_hd__clkbuf_2
*CAP
1 A[2] 0.000285395
2 *239:A 0.000285395
3 *239:A *185:A 0
4 *239:A *240:A 0.000134145
5 *239:A *244:A 2.25951e-05
*RES
1 A[2] *239:A 21.1946 
*END

*D_NET *4 0.00135351
*CONN
*P A[3] I
*I *240:A I *D sky130_fd_sc_hd__buf_1
*CAP
1 A[3] 0.000458459
2 *240:A 0.000458459
3 *240:A *185:A 0
4 *240:A *214:A2 3.93346e-05
5 *240:A *216:B1 0.000137983
6 *240:A *242:A 3.19385e-05
7 *240:A *73:19 9.31893e-05
8 *240:A *78:20 0
9 *239:A *240:A 0.000134145
*RES
1 A[3] *240:A 24.6031 
*END

*D_NET *5 0.000878979
*CONN
*P B[0] I
*I *241:A I *D sky130_fd_sc_hd__dlymetal6s2s_1
*CAP
1 B[0] 0.000411874
2 *241:A 0.000411874
3 *241:A P[1] 0
4 *241:A P[2] 0
5 *241:A *75:8 5.52302e-05
*RES
1 B[0] *241:A 21.8357 
*END

*D_NET *6 0.000728261
*CONN
*P B[1] I
*I *242:A I *D sky130_fd_sc_hd__clkbuf_2
*CAP
1 B[1] 0.000348161
2 *242:A 0.000348161
3 *240:A *242:A 3.19385e-05
*RES
1 B[1] *242:A 21.8017 
*END

*D_NET *7 0.000882098
*CONN
*P B[2] I
*I *243:A I *D sky130_fd_sc_hd__clkbuf_2
*CAP
1 B[2] 0.000434028
2 *243:A 0.000434028
3 *243:A P[2] 0
4 *243:A *77:10 1.40415e-05
5 *238:A *243:A 0
*RES
1 B[2] *243:A 22.1929 
*END

*D_NET *8 0.000631227
*CONN
*P B[3] I
*I *244:A I *D sky130_fd_sc_hd__clkbuf_2
*CAP
1 B[3] 0.000289932
2 *244:A 0.000289932
3 *244:A P[7] 2.87684e-05
4 *239:A *244:A 2.25951e-05
*RES
1 B[3] *244:A 20.891 
*END

*D_NET *9 0.000445355
*CONN
*P P[0] O
*I *245:LO O *D sky130_fd_sc_hd__conb_1
*CAP
1 P[0] 0.000222678
2 *245:LO 0.000222678
3 P[0] P[3] 0
*RES
1 *245:LO P[0] 18.1229 
*END

*D_NET *10 0.000987557
*CONN
*P P[1] O
*I *252:X O *D sky130_fd_sc_hd__buf_2
*CAP
1 P[1] 0.000448728
2 *252:X 0.000448728
3 P[1] *252:A 5.52302e-05
4 P[1] *75:8 3.48705e-05
5 *237:A P[1] 0
6 *241:A P[1] 0
*RES
1 *252:X P[1] 22.05 
*END

*D_NET *11 0.00119073
*CONN
*P P[2] O
*I *246:X O *D sky130_fd_sc_hd__buf_2
*CAP
1 P[2] 0.000568977
2 *246:X 0.000568977
3 P[2] *65:68 1.60455e-05
4 P[2] *75:58 3.67257e-05
5 *241:A P[2] 0
6 *243:A P[2] 0
*RES
1 *246:X P[2] 23.2821 
*END

*D_NET *12 0.00065217
*CONN
*P P[3] O
*I *247:X O *D sky130_fd_sc_hd__buf_2
*CAP
1 P[3] 0.000305289
2 *247:X 0.000305289
3 P[3] P[4] 0
4 P[3] *247:A 4.15914e-05
5 P[0] P[3] 0
*RES
1 *247:X P[3] 19.4092 
*END

*D_NET *13 0.000486179
*CONN
*P P[4] O
*I *248:X O *D sky130_fd_sc_hd__buf_2
*CAP
1 P[4] 0.000236992
2 *248:X 0.000236992
3 P[4] P[5] 0
4 P[4] *248:A 1.21955e-05
5 P[3] P[4] 0
*RES
1 *248:X P[4] 18.1949 
*END

*D_NET *14 0.000627935
*CONN
*P P[5] O
*I *249:X O *D sky130_fd_sc_hd__buf_2
*CAP
1 P[5] 0.000313968
2 *249:X 0.000313968
3 P[5] *249:A 0
4 P[4] P[5] 0
*RES
1 *249:X P[5] 19.4092 
*END

*D_NET *15 0.000954247
*CONN
*P P[6] O
*I *250:X O *D sky130_fd_sc_hd__buf_2
*CAP
1 P[6] 0.000477123
2 *250:X 0.000477123
*RES
1 *250:X P[6] 23.2643 
*END

*D_NET *16 0.000632965
*CONN
*P P[7] O
*I *251:X O *D sky130_fd_sc_hd__buf_2
*CAP
1 P[7] 0.000302098
2 *251:X 0.000302098
3 P[7] *251:A 0
4 *244:A P[7] 2.87684e-05
*RES
1 *251:X P[7] 19.4092 
*END

*D_NET *19 0.00122186
*CONN
*I *199:B2 I *D sky130_fd_sc_hd__o32ai_1
*I *184:Y O *D sky130_fd_sc_hd__inv_2
*CAP
1 *199:B2 0.000125431
2 *184:Y 0.000125431
3 *199:B2 *190:B 2.89016e-05
4 *199:B2 *199:B1 0.000477961
5 *199:B2 *200:B 5.71472e-05
6 *199:B2 *28:14 1.69961e-05
7 *199:B2 *30:10 5.3189e-05
8 *199:B2 *72:29 0.000311095
9 *199:B2 *72:38 2.571e-05
*RES
1 *184:Y *199:B2 24.0643 
*END

*D_NET *20 0.000312107
*CONN
*I *216:A2 I *D sky130_fd_sc_hd__a211o_1
*I *185:Y O *D sky130_fd_sc_hd__inv_2
*CAP
1 *216:A2 0.000127904
2 *185:Y 0.000127904
3 *216:A2 *48:6 5.62995e-05
*RES
1 *185:Y *216:A2 20.7964 
*END

*D_NET *21 0.00366184
*CONN
*I *199:B1 I *D sky130_fd_sc_hd__o32ai_1
*I *192:A1 I *D sky130_fd_sc_hd__a21oi_1
*I *189:B1 I *D sky130_fd_sc_hd__o211a_1
*I *186:Y O *D sky130_fd_sc_hd__nand3_1
*CAP
1 *199:B1 0.000319765
2 *192:A1 1.08934e-05
3 *189:B1 8.5149e-05
4 *186:Y 0
5 *21:19 0.000628425
6 *21:4 0.000382916
7 *189:B1 *189:A2 1.00375e-05
8 *189:B1 *65:10 5.33882e-05
9 *189:B1 *75:23 0.000179656
10 *192:A1 *184:A 0
11 *192:A1 *192:A2 2.53134e-05
12 *192:A1 *76:62 1.04232e-05
13 *199:B1 *184:A 0.000218313
14 *199:B1 *190:B 9.76435e-06
15 *199:B1 *195:B 5.52238e-05
16 *199:B1 *206:A 9.25014e-06
17 *199:B1 *246:A 0.000498731
18 *199:B1 *28:14 6.14891e-05
19 *199:B1 *72:25 5.41794e-05
20 *199:B1 *76:62 0.000212742
21 *21:19 *188:B1 1.24368e-05
22 *21:19 *192:A2 0.000111383
23 *21:19 *65:14 4.43256e-05
24 *21:19 *72:44 5.74499e-06
25 *21:19 *76:47 0.000151071
26 *21:19 *76:62 2.91249e-05
27 *199:B2 *199:B1 0.000477961
28 *237:A *189:B1 4.1331e-06
*RES
1 *186:Y *21:4 9.3 
2 *21:4 *189:B1 20.55 
3 *21:4 *21:19 5.89286 
4 *21:19 *192:A1 9.72857 
5 *21:19 *199:B1 28.7464 
*END

*D_NET *22 0.00266452
*CONN
*I *201:A I *D sky130_fd_sc_hd__or4_1
*I *202:A1 I *D sky130_fd_sc_hd__o31ai_1
*I *187:Y O *D sky130_fd_sc_hd__nor2_1
*CAP
1 *201:A 0.000266245
2 *202:A1 0
3 *187:Y 0.000532708
4 *22:10 0.000798953
5 *201:A *201:C 1.66568e-05
6 *201:A *203:A 2.94744e-05
7 *201:A *203:B 0.000260304
8 *201:A *27:6 7.32955e-05
9 *22:10 *27:6 0.000332544
10 *22:10 *73:57 0.000354337
*RES
1 *187:Y *22:10 19.3179 
2 *22:10 *202:A1 9.3 
3 *22:10 *201:A 14.9607 
*END

*D_NET *23 0.000420551
*CONN
*I *189:C1 I *D sky130_fd_sc_hd__o211a_1
*I *188:X O *D sky130_fd_sc_hd__a21o_1
*CAP
1 *189:C1 0.000157797
2 *188:X 0.000157797
3 *189:C1 *188:A1 0.00010096
4 *189:C1 *189:A2 3.99614e-06
5 *189:C1 *75:12 0
*RES
1 *188:X *189:C1 21.6179 
*END

*D_NET *24 0.002718
*CONN
*I *198:D_N I *D sky130_fd_sc_hd__or4b_1
*I *192:B1 I *D sky130_fd_sc_hd__a21oi_1
*I *190:X O *D sky130_fd_sc_hd__and4_1
*CAP
1 *198:D_N 0.000967552
2 *192:B1 8.95943e-06
3 *190:X 0
4 *24:4 0.000976512
5 *192:B1 *72:40 5.52238e-05
6 *192:B1 *76:62 5.71472e-05
7 *198:D_N *196:A 0.000187763
8 *198:D_N *196:B 3.48705e-05
9 *198:D_N *206:A 6.66766e-05
10 *198:D_N *207:A0 1.59373e-05
11 *198:D_N *207:S 5.52238e-05
12 *198:D_N *29:10 0
13 *198:D_N *31:16 0
14 *198:D_N *33:12 0
15 *198:D_N *75:73 0
16 *198:D_N *78:37 0.00023668
17 *198:D_N *78:50 4.82947e-05
18 *198:D_N *78:56 7.15905e-06
*RES
1 *190:X *24:4 9.3 
2 *24:4 *192:B1 9.83571 
3 *24:4 *198:D_N 44.4429 
*END

*D_NET *25 0.000255356
*CONN
*I *192:A2 I *D sky130_fd_sc_hd__a21oi_1
*I *191:Y O *D sky130_fd_sc_hd__nand2_1
*CAP
1 *192:A2 2.53476e-05
2 *191:Y 2.53476e-05
3 *192:A2 *76:62 6.79641e-05
4 *192:A1 *192:A2 2.53134e-05
5 *21:19 *192:A2 0.000111383
*RES
1 *191:Y *192:A2 19.975 
*END

*D_NET *26 0.00598572
*CONN
*I *209:S I *D sky130_fd_sc_hd__mux2_1
*I *201:B I *D sky130_fd_sc_hd__or4_1
*I *202:A2 I *D sky130_fd_sc_hd__o31ai_1
*I *218:A2 I *D sky130_fd_sc_hd__a21oi_1
*I *217:B I *D sky130_fd_sc_hd__and3_1
*I *193:X O *D sky130_fd_sc_hd__and3_1
*CAP
1 *209:S 0
2 *201:B 0.000125398
3 *202:A2 0
4 *218:A2 2.23854e-05
5 *217:B 0.000221743
6 *193:X 5.40981e-05
7 *26:34 0.00117029
8 *26:26 0.00121296
9 *26:8 0.000350478
10 *26:6 0.000328517
11 *201:B *201:C 0.000129515
12 *201:B *27:6 7.90536e-05
13 *217:B *50:18 0.000142856
14 *218:A2 *217:C 0
15 *26:6 *208:B 0
16 *26:6 *217:C 0
17 *26:8 *217:C 0.000127724
18 *26:8 *218:A1 4.27338e-05
19 *26:8 *50:18 0.000272371
20 *26:26 *193:B 9.7659e-05
21 *26:26 *193:C 2.57738e-05
22 *26:26 *208:B 2.89016e-05
23 *26:26 *50:18 3.03738e-05
24 *26:26 *74:48 1.5424e-05
25 *26:26 *76:97 0.000144773
26 *26:34 *187:B 0.00022897
27 *26:34 *27:6 0.00111674
28 *26:34 *76:97 1.69961e-05
*RES
1 *193:X *26:6 10.3357 
2 *26:6 *26:8 3.82143 
3 *26:8 *217:B 12.6214 
4 *26:8 *218:A2 9.72857 
5 *26:6 *26:26 4.23214 
6 *26:26 *26:34 15.6875 
7 *26:34 *202:A2 9.3 
8 *26:34 *201:B 11.2732 
9 *26:26 *209:S 9.3 
*END

*D_NET *27 0.00260792
*CONN
*I *201:C I *D sky130_fd_sc_hd__or4_1
*I *202:A3 I *D sky130_fd_sc_hd__o31ai_1
*I *194:Y O *D sky130_fd_sc_hd__a21oi_1
*CAP
1 *201:C 6.99262e-05
2 *202:A3 0
3 *194:Y 0.000210832
4 *27:6 0.000280758
5 *201:C *202:B1 2.89016e-05
6 *201:C *203:B 4.55878e-05
7 *27:6 *187:B 0.000118646
8 *27:6 *73:57 0.000105463
9 *201:A *201:C 1.66568e-05
10 *201:A *27:6 7.32955e-05
11 *201:B *201:C 0.000129515
12 *201:B *27:6 7.90536e-05
13 *22:10 *27:6 0.000332544
14 *26:34 *27:6 0.00111674
*RES
1 *194:Y *27:6 20.5143 
2 *27:6 *202:A3 9.3 
3 *27:6 *201:C 11.4964 
*END

*D_NET *28 0.00199692
*CONN
*I *207:S I *D sky130_fd_sc_hd__mux2_1
*I *198:A I *D sky130_fd_sc_hd__or4b_1
*I *199:A1 I *D sky130_fd_sc_hd__o32ai_1
*I *195:X O *D sky130_fd_sc_hd__and3_1
*CAP
1 *207:S 0.000153423
2 *198:A 0.000156333
3 *199:A1 0
4 *195:X 0.000222797
5 *28:18 0.000202087
6 *28:14 0.000421974
7 *198:A *198:C 0.000307843
8 *198:A *200:B 4.88637e-05
9 *207:S *196:A 5.52238e-05
10 *207:S *206:A 0
11 *207:S *29:10 6.75007e-05
12 *28:14 *200:B 9.90367e-05
13 *28:14 *29:10 3.10127e-05
14 *28:18 *198:C 9.71197e-05
15 *198:D_N *207:S 5.52238e-05
16 *199:B1 *28:14 6.14891e-05
17 *199:B2 *28:14 1.69961e-05
*RES
1 *195:X *28:14 17.2643 
2 *28:14 *28:18 5.44643 
3 *28:18 *199:A1 9.3 
4 *28:18 *198:A 13.6393 
5 *28:14 *207:S 16.8893 
*END

*D_NET *29 0.00109124
*CONN
*I *198:B I *D sky130_fd_sc_hd__or4b_1
*I *199:A2 I *D sky130_fd_sc_hd__o32ai_1
*I *196:Y O *D sky130_fd_sc_hd__nor2_1
*CAP
1 *198:B 0.000137053
2 *199:A2 6.42655e-05
3 *196:Y 0.000130287
4 *29:10 0.000331605
5 *198:B *200:B 0.000230482
6 *199:A2 *200:B 9.90367e-05
7 *198:D_N *29:10 0
8 *207:S *29:10 6.75007e-05
9 *28:14 *29:10 3.10127e-05
*RES
1 *196:Y *29:10 20.8536 
2 *29:10 *199:A2 10.2464 
3 *29:10 *198:B 11.4786 
*END

*D_NET *30 0.00198466
*CONN
*I *199:A3 I *D sky130_fd_sc_hd__o32ai_1
*I *198:C I *D sky130_fd_sc_hd__or4b_1
*I *197:Y O *D sky130_fd_sc_hd__a21oi_1
*CAP
1 *199:A3 0
2 *198:C 9.00688e-05
3 *197:Y 0.000342802
4 *30:10 0.000432871
5 *198:C *200:B 0.000446603
6 *30:10 *195:A 5.49544e-05
7 *30:10 *195:C 6.28499e-05
8 *30:10 *200:B 1.54142e-05
9 *30:10 *72:29 8.0949e-05
10 *198:A *198:C 0.000307843
11 *199:B2 *30:10 5.3189e-05
12 *28:18 *198:C 9.71197e-05
*RES
1 *197:Y *30:10 14.4205 
2 *30:10 *198:C 13.9607 
3 *30:10 *199:A3 9.3 
*END

*D_NET *31 0.00186181
*CONN
*I *200:A I *D sky130_fd_sc_hd__nand2_1
*I *235:A I *D sky130_fd_sc_hd__nand3_1
*I *213:A1 I *D sky130_fd_sc_hd__a21o_1
*I *198:X O *D sky130_fd_sc_hd__or4b_1
*CAP
1 *200:A 0
2 *235:A 0.000167901
3 *213:A1 3.92359e-05
4 *198:X 0.000101813
5 *31:16 0.000606851
6 *31:10 0.000501528
7 *213:A1 *235:C 5.52238e-05
8 *235:A *213:A2 4.58976e-05
9 *235:A *235:C 5.52302e-05
10 *31:10 *200:B 2.85077e-05
11 *31:10 *33:12 5.71472e-05
12 *31:16 *33:12 0.000179053
13 *31:16 *34:19 2.34204e-05
14 *198:D_N *31:16 0
*RES
1 *198:X *31:10 11.5143 
2 *31:10 *31:16 15.5 
3 *31:16 *213:A1 9.83571 
4 *31:16 *235:A 11.8 
5 *31:10 *200:A 9.3 
*END

*D_NET *32 0.00154294
*CONN
*I *200:B I *D sky130_fd_sc_hd__nand2_1
*I *199:Y O *D sky130_fd_sc_hd__o32ai_1
*CAP
1 *200:B 0.000258926
2 *199:Y 0.000258926
3 *198:A *200:B 4.88637e-05
4 *198:B *200:B 0.000230482
5 *198:C *200:B 0.000446603
6 *199:A2 *200:B 9.90367e-05
7 *199:B2 *200:B 5.71472e-05
8 *28:14 *200:B 9.90367e-05
9 *30:10 *200:B 1.54142e-05
10 *31:10 *200:B 2.85077e-05
*RES
1 *199:Y *200:B 26.4393 
*END

*D_NET *33 0.000831985
*CONN
*I *201:D I *D sky130_fd_sc_hd__or4_1
*I *202:B1 I *D sky130_fd_sc_hd__o31ai_1
*I *200:Y O *D sky130_fd_sc_hd__nand2_1
*CAP
1 *201:D 0
2 *202:B1 1.40568e-05
3 *200:Y 0.000241773
4 *33:12 0.00025583
5 *202:B1 *203:B 5.52238e-05
6 *198:D_N *33:12 0
7 *201:C *202:B1 2.89016e-05
8 *31:10 *33:12 5.71472e-05
9 *31:16 *33:12 0.000179053
*RES
1 *200:Y *33:12 23.2107 
2 *33:12 *202:B1 9.83571 
3 *33:12 *201:D 9.3 
*END

*D_NET *34 0.000656548
*CONN
*I *235:B I *D sky130_fd_sc_hd__nand3_1
*I *213:A2 I *D sky130_fd_sc_hd__a21o_1
*I *203:A I *D sky130_fd_sc_hd__and2_1
*I *201:X O *D sky130_fd_sc_hd__or4_1
*CAP
1 *235:B 0
2 *213:A2 3.20311e-05
3 *203:A 4.5192e-05
4 *201:X 0
5 *34:19 0.000147466
6 *34:4 0.000160627
7 *203:A *203:B 6.11433e-05
8 *213:A2 *235:C 5.71472e-05
9 *213:A2 *45:10 5.41494e-05
10 *34:19 *247:A 0
11 *34:19 *44:12 0
12 *201:A *203:A 2.94744e-05
13 *235:A *213:A2 4.58976e-05
14 *31:16 *34:19 2.34204e-05
*RES
1 *201:X *34:4 9.3 
2 *34:4 *203:A 10.5679 
3 *34:4 *34:19 10.6429 
4 *34:19 *213:A2 10.6571 
5 *34:19 *235:B 9.3 
*END

*D_NET *35 0.000855542
*CONN
*I *203:B I *D sky130_fd_sc_hd__and2_1
*I *202:Y O *D sky130_fd_sc_hd__o31ai_1
*CAP
1 *203:B 0.000216641
2 *202:Y 0.000216641
3 *201:A *203:B 0.000260304
4 *201:C *203:B 4.55878e-05
5 *202:B1 *203:B 5.52238e-05
6 *203:A *203:B 6.11433e-05
*RES
1 *202:Y *203:B 24.7964 
*END

*D_NET *36 0.00184118
*CONN
*I *212:A I *D sky130_fd_sc_hd__xor2_1
*I *227:C I *D sky130_fd_sc_hd__and3_1
*I *204:Y O *D sky130_fd_sc_hd__nand2_1
*CAP
1 *212:A 0.000542495
2 *227:C 0.000360957
3 *204:Y 0
4 *36:4 0.000903453
5 *227:C *204:B 2.59355e-05
6 *227:C *227:B 8.33859e-06
*RES
1 *204:Y *36:4 9.3 
2 *36:4 *227:C 13.1929 
3 *36:4 *212:A 24.9964 
*END

*D_NET *37 0.000786565
*CONN
*I *217:C I *D sky130_fd_sc_hd__and3_1
*I *218:B1 I *D sky130_fd_sc_hd__a21oi_1
*I *205:X O *D sky130_fd_sc_hd__and4_1
*CAP
1 *217:C 7.34006e-05
2 *218:B1 0
3 *205:X 0.00013762
4 *37:12 0.000211021
5 *217:C *218:A1 5.52302e-05
6 *37:12 *193:A 4.46186e-06
7 *37:12 *77:41 0.000148196
8 *37:12 *78:20 2.89114e-05
9 *218:A2 *217:C 0
10 *26:6 *217:C 0
11 *26:8 *217:C 0.000127724
*RES
1 *205:X *37:12 20.7821 
2 *37:12 *218:B1 9.3 
3 *37:12 *217:C 11.2821 
*END

*D_NET *38 0.000601682
*CONN
*I *207:A0 I *D sky130_fd_sc_hd__mux2_1
*I *206:Y O *D sky130_fd_sc_hd__nand2_1
*CAP
1 *207:A0 5.22223e-05
2 *206:Y 5.22223e-05
3 *207:A0 *196:A 2.87584e-05
4 *207:A0 *206:A 0.000183445
5 *207:A0 *78:56 0.000269097
6 *198:D_N *207:A0 1.59373e-05
*RES
1 *206:Y *207:A0 21.1893 
*END

*D_NET *39 0.0011954
*CONN
*I *210:A I *D sky130_fd_sc_hd__nor2_1
*I *211:A I *D sky130_fd_sc_hd__xor2_1
*I *207:X O *D sky130_fd_sc_hd__mux2_1
*CAP
1 *210:A 0.000166492
2 *211:A 3.77811e-05
3 *207:X 0.00023374
4 *39:10 0.000438013
5 *210:A *210:B 7.33907e-05
6 *210:A *221:B1 1.15281e-05
7 *211:A *210:B 9.83388e-05
8 *39:10 *73:57 6.72876e-05
9 *39:10 *77:98 6.88338e-05
*RES
1 *207:X *39:10 22.3714 
2 *39:10 *211:A 10.2464 
3 *39:10 *210:A 12.3357 
*END

*D_NET *40 0.000522784
*CONN
*I *209:A0 I *D sky130_fd_sc_hd__mux2_1
*I *208:Y O *D sky130_fd_sc_hd__nand2_1
*CAP
1 *209:A0 0.000146151
2 *208:Y 0.000146151
3 *209:A0 *74:48 0.000230482
*RES
1 *208:Y *209:A0 20.7786 
*END

*D_NET *41 0.0012955
*CONN
*I *210:B I *D sky130_fd_sc_hd__nor2_1
*I *211:B I *D sky130_fd_sc_hd__xor2_1
*I *209:X O *D sky130_fd_sc_hd__mux2_1
*CAP
1 *210:B 0.000132668
2 *211:B 0
3 *209:X 0.000305234
4 *41:12 0.000437902
5 *210:B *221:B1 6.05161e-06
6 *210:B *43:12 2.89016e-05
7 *41:12 *73:46 6.36431e-05
8 *41:12 *74:44 0.000149372
9 *210:A *210:B 7.33907e-05
10 *211:A *210:B 9.83388e-05
*RES
1 *209:X *41:12 24.0679 
2 *41:12 *211:B 9.3 
3 *41:12 *210:B 12.3179 
*END

*D_NET *42 0.000381929
*CONN
*I *221:B1 I *D sky130_fd_sc_hd__a31o_1
*I *210:Y O *D sky130_fd_sc_hd__nor2_1
*CAP
1 *221:B1 0.000112973
2 *210:Y 0.000112973
3 *221:B1 *204:A 1.02504e-05
4 *221:B1 *77:98 0.000128154
5 *210:A *221:B1 1.15281e-05
6 *210:B *221:B1 6.05161e-06
*RES
1 *210:Y *221:B1 29.7786 
*END

*D_NET *43 0.00112093
*CONN
*I *212:B I *D sky130_fd_sc_hd__xor2_1
*I *221:A3 I *D sky130_fd_sc_hd__a31o_1
*I *211:X O *D sky130_fd_sc_hd__xor2_1
*CAP
1 *212:B 0.00034951
2 *221:A3 0
3 *211:X 0.000120839
4 *43:12 0.000470349
5 *43:12 *204:B 2.31791e-05
6 *43:12 *73:57 0.000128154
7 *210:B *43:12 2.89016e-05
*RES
1 *211:X *43:12 20.7821 
2 *43:12 *221:A3 9.3 
3 *43:12 *212:B 14.7821 
*END

*D_NET *44 0.000864071
*CONN
*I *213:B1 I *D sky130_fd_sc_hd__a21o_1
*I *235:C I *D sky130_fd_sc_hd__nand3_1
*I *212:X O *D sky130_fd_sc_hd__xor2_1
*CAP
1 *213:B1 0
2 *235:C 8.31184e-05
3 *212:X 0.000245234
4 *44:12 0.000328352
5 *235:C *45:10 3.97657e-05
6 *213:A1 *235:C 5.52238e-05
7 *213:A2 *235:C 5.71472e-05
8 *235:A *235:C 5.52302e-05
9 *34:19 *44:12 0
*RES
1 *212:X *44:12 21.6036 
2 *44:12 *235:C 11.4964 
3 *44:12 *213:B1 9.3 
*END

*D_NET *45 0.0025449
*CONN
*I *225:A I *D sky130_fd_sc_hd__xnor2_1
*I *224:A_N I *D sky130_fd_sc_hd__and2b_1
*I *236:A I *D sky130_fd_sc_hd__and2_1
*I *213:X O *D sky130_fd_sc_hd__a21o_1
*CAP
1 *225:A 0
2 *224:A_N 0.000151979
3 *236:A 0
4 *213:X 0.000339124
5 *45:23 0.000622802
6 *45:10 0.000809947
7 *224:A_N *225:B 0.000363837
8 *45:10 *236:B 0.000153047
9 *45:23 *236:B 1.02504e-05
10 *45:23 *248:A 0
11 *213:A2 *45:10 5.41494e-05
12 *235:C *45:10 3.97657e-05
*RES
1 *213:X *45:10 19.1571 
2 *45:10 *236:A 13.8 
3 *45:10 *45:23 12.9643 
4 *45:23 *224:A_N 13.1214 
5 *45:23 *225:A 9.3 
*END

*D_NET *46 0.000882514
*CONN
*I *216:B1 I *D sky130_fd_sc_hd__a211o_1
*I *214:Y O *D sky130_fd_sc_hd__a21oi_1
*CAP
1 *216:B1 0.000164632
2 *214:Y 0.000164632
3 *216:B1 *215:A 0.00010326
4 *216:B1 *215:C 0
5 *216:B1 *216:C1 5.80706e-06
6 *216:B1 *73:19 0.000139913
7 *216:B1 *74:23 4.06875e-05
8 *216:B1 *77:41 0.000105689
9 *216:B1 *78:10 5.80706e-06
10 *216:B1 *78:14 1.41029e-05
11 *240:A *216:B1 0.000137983
*RES
1 *214:Y *216:B1 31.8143 
*END

*D_NET *47 0.000881977
*CONN
*I *234:A2 I *D sky130_fd_sc_hd__a211o_1
*I *216:C1 I *D sky130_fd_sc_hd__a211o_1
*I *215:X O *D sky130_fd_sc_hd__and3_1
*CAP
1 *234:A2 0.000261845
2 *216:C1 4.69161e-05
3 *215:X 0
4 *47:6 0.000308761
5 *216:C1 *215:A 5.71472e-05
6 *216:C1 *48:6 5.52238e-05
7 *216:C1 *74:23 8.07951e-05
8 *216:C1 *78:10 0
9 *234:A2 *231:B 0
10 *234:A2 *234:A1 5.52302e-05
11 *234:A2 *59:12 0
12 *234:A2 *60:10 0
13 *234:A2 *74:23 1.02504e-05
14 *234:A2 *78:10 0
15 *216:B1 *216:C1 5.80706e-06
*RES
1 *215:X *47:6 13.8 
2 *47:6 *216:C1 15.3714 
3 *47:6 *234:A2 18.4071 
*END

*D_NET *48 0.00200762
*CONN
*I *220:A I *D sky130_fd_sc_hd__xor2_1
*I *228:A1 I *D sky130_fd_sc_hd__o21bai_1
*I *216:X O *D sky130_fd_sc_hd__a211o_1
*CAP
1 *220:A 0.000277675
2 *228:A1 0.000130786
3 *216:X 0.000210429
4 *48:6 0.000618889
5 *220:A *74:38 0.000349486
6 *228:A1 *215:C 6.74815e-05
7 *228:A1 *50:18 1.02504e-05
8 *228:A1 *59:12 0
9 *228:A1 *74:23 2.47093e-05
10 *48:6 *215:A 0.000131583
11 *48:6 *74:23 2.89114e-05
12 *48:6 *74:38 4.58976e-05
13 *216:A2 *48:6 5.62995e-05
14 *216:C1 *48:6 5.52238e-05
*RES
1 *216:X *48:6 13.9429 
2 *48:6 *228:A1 20.8536 
3 *48:6 *220:A 15.7286 
*END

*D_NET *49 0.00139171
*CONN
*I *219:A I *D sky130_fd_sc_hd__or2_1
*I *228:B1_N I *D sky130_fd_sc_hd__o21bai_1
*I *217:X O *D sky130_fd_sc_hd__and3_1
*CAP
1 *219:A 0.000120561
2 *228:B1_N 0
3 *217:X 0.000314731
4 *49:12 0.000435292
5 *219:A *219:B 5.71472e-05
6 *49:12 *215:C 9.25014e-06
7 *49:12 *219:B 4.69993e-05
8 *49:12 *50:18 0.000108219
9 *49:12 *73:25 0.000198691
10 *49:12 *76:12 0
11 *49:12 *76:30 0.000100823
*RES
1 *217:X *49:12 24.3536 
2 *49:12 *228:B1_N 9.3 
3 *49:12 *219:A 11.8179 
*END

*D_NET *50 0.00191507
*CONN
*I *219:B I *D sky130_fd_sc_hd__or2_1
*I *228:A2 I *D sky130_fd_sc_hd__o21bai_1
*I *218:Y O *D sky130_fd_sc_hd__a21oi_1
*CAP
1 *219:B 4.84248e-05
2 *228:A2 0
3 *218:Y 0.000386613
4 *50:18 0.000435038
5 *219:B *59:12 5.62995e-05
6 *50:18 *193:A 3.5707e-05
7 *50:18 *193:C 3.92757e-05
8 *50:18 *215:C 2.50556e-05
9 *50:18 *76:30 0.000220441
10 *50:18 *76:90 0
11 *217:B *50:18 0.000142856
12 *219:A *219:B 5.71472e-05
13 *228:A1 *50:18 1.02504e-05
14 *26:8 *50:18 0.000272371
15 *26:26 *50:18 3.03738e-05
16 *49:12 *219:B 4.69993e-05
17 *49:12 *50:18 0.000108219
*RES
1 *218:Y *50:18 28.2821 
2 *50:18 *228:A2 9.3 
3 *50:18 *219:B 11.0679 
*END

*D_NET *51 0.000494438
*CONN
*I *220:B I *D sky130_fd_sc_hd__xor2_1
*I *219:X O *D sky130_fd_sc_hd__or2_1
*CAP
1 *220:B 0.00020805
2 *219:X 0.00020805
3 *220:B *59:12 0
4 *220:B *74:44 7.83366e-05
*RES
1 *219:X *220:B 30.9036 
*END

*D_NET *52 0.00125494
*CONN
*I *223:A I *D sky130_fd_sc_hd__xor2_1
*I *222:A I *D sky130_fd_sc_hd__and2_1
*I *220:X O *D sky130_fd_sc_hd__xor2_1
*CAP
1 *223:A 8.23678e-05
2 *222:A 0
3 *220:X 0.000374475
4 *52:18 0.000456843
5 *223:A *223:B 5.39828e-05
6 *52:18 *222:B 5.49489e-05
7 *52:18 *223:B 5.49544e-05
8 *52:18 *227:B 9.99853e-05
9 *52:18 *53:14 0
10 *52:18 *54:14 2.07878e-05
11 *52:18 *58:12 5.65955e-05
*RES
1 *220:X *52:18 25.1571 
2 *52:18 *222:A 9.3 
3 *52:18 *223:A 11.0857 
*END

*D_NET *53 0.00115207
*CONN
*I *222:B I *D sky130_fd_sc_hd__and2_1
*I *223:B I *D sky130_fd_sc_hd__xor2_1
*I *221:X O *D sky130_fd_sc_hd__a31o_1
*CAP
1 *222:B 7.24245e-05
2 *223:B 8.80845e-05
3 *221:X 0.00027795
4 *53:14 0.000438459
5 *53:14 *204:B 0.000111263
6 *223:A *223:B 5.39828e-05
7 *52:18 *222:B 5.49489e-05
8 *52:18 *223:B 5.49544e-05
9 *52:18 *53:14 0
*RES
1 *221:X *53:14 18.7643 
2 *53:14 *223:B 15.5857 
3 *53:14 *222:B 15.0679 
*END

*D_NET *54 0.000505896
*CONN
*I *226:A I *D sky130_fd_sc_hd__nor2_1
*I *232:A1 I *D sky130_fd_sc_hd__o21ba_1
*I *222:X O *D sky130_fd_sc_hd__and2_1
*CAP
1 *226:A 1.78509e-05
2 *232:A1 0
3 *222:X 0.000175531
4 *54:14 0.000193382
5 *226:A *232:A2 4.33899e-05
6 *54:14 *232:A2 5.49544e-05
7 *52:18 *54:14 2.07878e-05
*RES
1 *222:X *54:14 21.0143 
2 *54:14 *232:A1 9.3 
3 *54:14 *226:A 9.83571 
*END

*D_NET *55 0.00148029
*CONN
*I *225:B I *D sky130_fd_sc_hd__xnor2_1
*I *224:B I *D sky130_fd_sc_hd__and2b_1
*I *223:X O *D sky130_fd_sc_hd__xor2_1
*CAP
1 *225:B 0.000202121
2 *224:B 5.64106e-05
3 *223:X 0.000299696
4 *55:12 0.000558228
5 *224:A_N *225:B 0.000363837
*RES
1 *223:X *55:12 23.3357 
2 *55:12 *224:B 10.2643 
3 *55:12 *225:B 13.9429 
*END

*D_NET *56 0.00103337
*CONN
*I *226:B I *D sky130_fd_sc_hd__nor2_1
*I *232:A2 I *D sky130_fd_sc_hd__o21ba_1
*I *224:X O *D sky130_fd_sc_hd__and2b_1
*CAP
1 *226:B 0
2 *232:A2 0.000171744
3 *224:X 0.00029406
4 *56:8 0.000465804
5 *232:A2 *232:B1_N 3.41517e-06
6 *226:A *232:A2 4.33899e-05
7 *54:14 *232:A2 5.49544e-05
*RES
1 *224:X *56:8 14.3714 
2 *56:8 *232:A2 12.3357 
3 *56:8 *226:B 9.3 
*END

*D_NET *57 0.000947323
*CONN
*I *233:A I *D sky130_fd_sc_hd__xor2_1
*I *226:Y O *D sky130_fd_sc_hd__nor2_1
*CAP
1 *233:A 0.000446145
2 *226:Y 0.000446145
3 *233:A *250:A 5.5033e-05
*RES
1 *226:Y *233:A 34.9214 
*END

*D_NET *58 0.00139066
*CONN
*I *230:A I *D sky130_fd_sc_hd__nor2_1
*I *229:A I *D sky130_fd_sc_hd__and2_1
*I *227:X O *D sky130_fd_sc_hd__and3_1
*CAP
1 *230:A 0
2 *229:A 8.94402e-05
3 *227:X 0.000401009
4 *58:12 0.000490449
5 *229:A *230:B 5.71472e-05
6 *229:A *231:B 1.74352e-05
7 *58:12 *227:B 6.85372e-05
8 *58:12 *59:12 0
9 *58:12 *74:38 0.000210052
10 *52:18 *58:12 5.65955e-05
*RES
1 *227:X *58:12 24.0679 
2 *58:12 *229:A 11.0857 
3 *58:12 *230:A 9.3 
*END

*D_NET *59 0.000925101
*CONN
*I *230:B I *D sky130_fd_sc_hd__nor2_1
*I *229:B I *D sky130_fd_sc_hd__and2_1
*I *228:Y O *D sky130_fd_sc_hd__o21bai_1
*CAP
1 *230:B 5.24663e-05
2 *229:B 0
3 *228:Y 0.000325211
4 *59:12 0.000377678
5 *230:B *231:B 5.62995e-05
6 *59:12 *74:23 0
7 *219:B *59:12 5.62995e-05
8 *220:B *59:12 0
9 *228:A1 *59:12 0
10 *229:A *230:B 5.71472e-05
11 *234:A2 *59:12 0
12 *58:12 *59:12 0
*RES
1 *228:Y *59:12 23.6214 
2 *59:12 *229:B 9.3 
3 *59:12 *230:B 10.6571 
*END

*D_NET *60 0.000951279
*CONN
*I *231:A I *D sky130_fd_sc_hd__or2_1
*I *234:B1 I *D sky130_fd_sc_hd__a211o_1
*I *229:X O *D sky130_fd_sc_hd__and2_1
*CAP
1 *231:A 0.000175289
2 *234:B1 0.000135745
3 *229:X 5.41737e-05
4 *60:10 0.000365208
5 *231:A *234:C1 0.000122101
6 *234:B1 *234:A1 1.97695e-05
7 *234:B1 *234:C1 5.33334e-05
8 *60:10 *231:B 2.56601e-05
9 *234:A2 *60:10 0
*RES
1 *229:X *60:10 19.3357 
2 *60:10 *234:B1 11.3893 
3 *60:10 *231:A 11.9071 
*END

*D_NET *61 0.000441543
*CONN
*I *231:B I *D sky130_fd_sc_hd__or2_1
*I *230:Y O *D sky130_fd_sc_hd__nor2_1
*CAP
1 *231:B 0.000171074
2 *230:Y 0.000171074
3 *229:A *231:B 1.74352e-05
4 *230:B *231:B 5.62995e-05
5 *234:A2 *231:B 0
6 *60:10 *231:B 2.56601e-05
*RES
1 *230:Y *231:B 30.2964 
*END

*D_NET *62 0.000923696
*CONN
*I *233:B I *D sky130_fd_sc_hd__xor2_1
*I *232:B1_N I *D sky130_fd_sc_hd__o21ba_1
*I *231:X O *D sky130_fd_sc_hd__or2_1
*CAP
1 *233:B 0.000118064
2 *232:B1_N 0.000137767
3 *231:X 8.36201e-05
4 *62:6 0.000339451
5 *232:B1_N *234:C1 0.000143651
6 *62:6 *234:C1 9.77274e-05
7 *232:A2 *232:B1_N 3.41517e-06
*RES
1 *231:X *62:6 11.0679 
2 *62:6 *232:B1_N 12.3357 
3 *62:6 *233:B 20.2464 
*END

*D_NET *63 0.000981984
*CONN
*I *234:C1 I *D sky130_fd_sc_hd__a211o_1
*I *232:X O *D sky130_fd_sc_hd__o21ba_1
*CAP
1 *234:C1 0.000282586
2 *232:X 0.000282586
3 *231:A *234:C1 0.000122101
4 *232:B1_N *234:C1 0.000143651
5 *234:B1 *234:C1 5.33334e-05
6 *62:6 *234:C1 9.77274e-05
*RES
1 *232:X *234:C1 25.2964 
*END

*D_NET *64 0.000391927
*CONN
*I *236:B I *D sky130_fd_sc_hd__and2_1
*I *235:Y O *D sky130_fd_sc_hd__nand3_1
*CAP
1 *236:B 0.000114315
2 *235:Y 0.000114315
3 *45:10 *236:B 0.000153047
4 *45:23 *236:B 1.02504e-05
*RES
1 *235:Y *236:B 30.0821 
*END

*D_NET *65 0.00475655
*CONN
*I *195:A I *D sky130_fd_sc_hd__and3_1
*I *197:B1 I *D sky130_fd_sc_hd__a21oi_1
*I *190:A I *D sky130_fd_sc_hd__and4_1
*I *205:A I *D sky130_fd_sc_hd__and4_1
*I *186:A I *D sky130_fd_sc_hd__nand3_1
*I *188:B1 I *D sky130_fd_sc_hd__a21o_1
*I *237:X O *D sky130_fd_sc_hd__buf_1
*CAP
1 *195:A 1.21645e-05
2 *197:B1 0
3 *190:A 0.000198052
4 *205:A 6.82996e-05
5 *186:A 0
6 *188:B1 0.000285293
7 *237:X 0
8 *65:68 0.000300953
9 *65:45 0.00094769
10 *65:14 0.000309636
11 *65:10 0.000332291
12 *65:4 0.000700499
13 *188:B1 *188:A2 7.58571e-05
14 *188:B1 *72:44 4.35567e-05
15 *190:A *75:58 0.000110341
16 *195:A *72:29 5.49544e-05
17 *205:A *189:A2 9.25014e-06
18 *205:A *193:A 4.8476e-05
19 *205:A *76:30 0.000138946
20 *65:10 *189:A2 0.000204134
21 *65:10 *193:A 4.1331e-06
22 *65:10 *75:8 0.000122159
23 *65:10 *75:23 1.69115e-05
24 *65:14 *72:44 5.33334e-05
25 *65:45 *75:8 0.000291146