*SPEF "ieee 1481-1999"
*DESIGN "e7_SARSA_nSteps_INDEPENDIENTES"
*DATE "14:18:19 Tuesday September 16, 2025"
*VENDOR "The OpenROAD Project"
*PROGRAM "OpenROAD"
*VERSION "edf00dff99f6c40d67a30c0e22a8191c5d2ed9d6"
*DESIGN_FLOW "NAME_SCOPE LOCAL" "PIN_CAP NONE"
*DIVIDER /
*DELIMITER :
*BUS_DELIMITER []
*T_UNIT 1 NS
*C_UNIT 1 PF
*R_UNIT 1 OHM
*L_UNIT 1 HENRY

*NAME_MAP
*1 A[0]
*2 A[1]
*3 B[0]
*4 B[1]
*5 P[0]
*6 P[1]
*7 P[2]
*8 net6
*11 net1
*12 net2
*13 net3
*14 net4
*15 net5
*16 pp2
*17 FILLER_0_15
*18 FILLER_0_27
*19 FILLER_0_29
*20 FILLER_0_3
*21 FILLER_0_41
*22 FILLER_0_53
*23 FILLER_0_57
*24 FILLER_0_69
*25 FILLER_1_15
*26 FILLER_1_27
*27 FILLER_1_3
*28 FILLER_1_39
*29 FILLER_1_51
*30 FILLER_1_55
*31 FILLER_1_57
*32 FILLER_1_69
*33 FILLER_2_15
*34 FILLER_2_27
*35 FILLER_2_29
*36 FILLER_2_3
*37 FILLER_2_41
*38 FILLER_2_53
*39 FILLER_2_65
*40 FILLER_2_77
*41 FILLER_3_15
*42 FILLER_3_27
*43 FILLER_3_3
*44 FILLER_3_39
*45 FILLER_3_51
*46 FILLER_3_55
*47 FILLER_3_57
*48 FILLER_3_69
*49 FILLER_4_15
*50 FILLER_4_29
*51 FILLER_4_41
*52 FILLER_4_53
*53 FILLER_4_6
*54 FILLER_4_65
*55 FILLER_5_12
*56 FILLER_5_16
*57 FILLER_5_28
*58 FILLER_5_40
*59 FILLER_5_52
*60 FILLER_5_57
*61 FILLER_5_6
*62 FILLER_5_69
*63 FILLER_6_19
*64 FILLER_6_27
*65 FILLER_6_29
*66 FILLER_6_41
*67 FILLER_6_53
*68 FILLER_6_65
*69 FILLER_6_7
*70 FILLER_6_77
*71 FILLER_7_15
*72 FILLER_7_27
*73 FILLER_7_3
*74 FILLER_7_39
*75 FILLER_7_51
*76 FILLER_7_55
*77 FILLER_7_57
*78 FILLER_7_69
*79 FILLER_8_15
*80 FILLER_8_27
*81 FILLER_8_29
*82 FILLER_8_3
*83 FILLER_8_41
*84 FILLER_8_53
*85 FILLER_8_65
*86 FILLER_8_77
*87 FILLER_9_15
*88 FILLER_9_27
*89 FILLER_9_29
*90 FILLER_9_3
*91 FILLER_9_41
*92 FILLER_9_53
*93 FILLER_9_57
*94 FILLER_9_69
*95 PHY_EDGE_ROW_0_Left_10
*96 PHY_EDGE_ROW_0_Right_0
*97 PHY_EDGE_ROW_1_Left_11
*98 PHY_EDGE_ROW_1_Right_1
*99 PHY_EDGE_ROW_2_Left_12
*100 PHY_EDGE_ROW_2_Right_2
*101 PHY_EDGE_ROW_3_Left_13
*102 PHY_EDGE_ROW_3_Right_3
*103 PHY_EDGE_ROW_4_Left_14
*104 PHY_EDGE_ROW_4_Right_4
*105 PHY_EDGE_ROW_5_Left_15
*106 PHY_EDGE_ROW_5_Right_5
*107 PHY_EDGE_ROW_6_Left_16
*108 PHY_EDGE_ROW_6_Right_6
*109 PHY_EDGE_ROW_7_Left_17
*110 PHY_EDGE_ROW_7_Right_7
*111 PHY_EDGE_ROW_8_Left_18
*112 PHY_EDGE_ROW_8_Right_8
*113 PHY_EDGE_ROW_9_Left_19
*114 PHY_EDGE_ROW_9_Right_9
*115 TAP_TAPCELL_ROW_0_20
*116 TAP_TAPCELL_ROW_0_21
*117 TAP_TAPCELL_ROW_1_22
*118 TAP_TAPCELL_ROW_2_23
*119 TAP_TAPCELL_ROW_3_24
*120 TAP_TAPCELL_ROW_4_25
*121 TAP_TAPCELL_ROW_5_26
*122 TAP_TAPCELL_ROW_6_27
*123 TAP_TAPCELL_ROW_7_28
*124 TAP_TAPCELL_ROW_8_29
*125 TAP_TAPCELL_ROW_9_30
*126 TAP_TAPCELL_ROW_9_31
*127 _0_
*128 _1_
*129 _2_
*130 _4_
*131 e7_SARSA_nSteps_INDEPENDIENTES_6
*132 input1
*133 input2
*134 output3
*135 output4
*136 output5

*PORTS
A[0] I
A[1] I
B[0] I
B[1] I
P[0] O
P[1] O
P[2] O
P[3] O

*D_NET *2 0.00071699
*CONN
*P A[1] I
*I *132:A I *D sky130_fd_sc_hd__clkbuf_1
*CAP
1 A[1] 0.000330094
2 *132:A 0
3 *2:17 0.000330094
4 *2:17 P[0] 2.79122e-05
5 *2:17 *4:17 2.88889e-05
*RES
1 A[1] *2:17 27.8627 
2 *2:17 *132:A 23 
*END

*D_NET *4 0.000733319
*CONN
*P B[1] I
*I *133:A I *D sky130_fd_sc_hd__clkbuf_1
*CAP
1 B[1] 0.000352215
2 *133:A 0
3 *4:17 0.000352215
4 *2:17 *4:17 2.88889e-05
*RES
1 B[1] *4:17 28.2148 
2 *4:17 *133:A 23 
*END

*D_NET *5 0.00055641
*CONN
*P P[0] O
*I *134:X O *D sky130_fd_sc_hd__buf_2
*CAP
1 P[0] 0.000259316
2 *134:X 0.000259316
3 P[0] *13:10 9.86551e-06
4 *2:17 P[0] 2.79122e-05
*RES
1 *134:X P[0] 47.1648 
*END

*D_NET *6 0.000673721
*CONN
*P P[1] O
*I *135:X O *D sky130_fd_sc_hd__buf_2
*CAP
1 P[1] 0.000293173
2 *135:X 0.000293173
3 P[1] P[2] 8.73764e-05
*RES
1 *135:X P[1] 48.5734 
*END

*D_NET *7 0.000615035
*CONN
*P P[2] O
*I *136:X O *D sky130_fd_sc_hd__buf_2
*CAP
1 P[2] 0.000223522
2 *136:X 0.000223522
3 P[2] P[3] 8.06147e-05
4 P[1] P[2] 8.73764e-05
*RES
1 *136:X P[2] 47.8691 
*END

*D_NET *8 0.00052467
*CONN
*P P[3] O
*I *131:LO O *D sky130_fd_sc_hd__conb_1
*CAP
1 P[3] 0.000222028
2 *131:LO 0.000222028
3 P[2] P[3] 8.06147e-05
*RES
1 *131:LO P[3] 47.7832 
*END

*D_NET *11 0.00179537
*CONN
*I *128:A I *D sky130_fd_sc_hd__or2_1
*I *129:A I *D sky130_fd_sc_hd__and2_1
*I *127:A I *D sky130_fd_sc_hd__nor2_1
*I *132:X O *D sky130_fd_sc_hd__clkbuf_1
*CAP
1 *128:A 0.000167008
2 *129:A 0
3 *127:A 0
4 *132:X 0.000407804
5 *11:21 0.000303553
6 *11:12 0.000136545
7 *11:10 0.000407804
8 *128:A *128:B 8.1796e-05
9 *128:A *129:B 0
10 *128:A *12:17 4.95081e-05
11 *11:10 *13:10 3.10046e-05
12 *11:10 *16:8 4.08537e-05
13 *11:21 *127:B 5.90675e-06
14 *11:21 *12:8 5.70419e-05
15 *11:21 *12:17 0.00010655
*RES
1 *132:X *11:10 43.7379 
2 *11:10 *11:12 15 
3 *11:12 *127:A 23 
4 *11:12 *11:21 3.50071 
5 *11:21 *129:A 23 
6 *11:21 *128:A 26.9771 
*END

*D_NET *12 0.00125977
*CONN
*I *128:B I *D sky130_fd_sc_hd__or2_1
*I *129:B I *D sky130_fd_sc_hd__and2_1
*I *127:B I *D sky130_fd_sc_hd__nor2_1
*I *133:X O *D sky130_fd_sc_hd__clkbuf_1
*CAP
1 *128:B 6.13278e-05
2 *129:B 1.17411e-05
3 *127:B 2.14194e-05
4 *133:X 0.000263508
5 *12:17 0.000194556
6 *12:8 0.000406415
7 *128:A *128:B 8.1796e-05
8 *128:A *129:B 0
9 *128:A *12:17 4.95081e-05
10 *11:21 *127:B 5.90675e-06
11 *11:21 *12:8 5.70419e-05
12 *11:21 *12:17 0.00010655
*RES
1 *133:X *12:8 27.93 
2 *12:8 *127:B 23.4971 
3 *12:8 *12:17 3.00357 
4 *12:17 *129:B 23.4971 
5 *12:17 *128:B 24.5743 
*END

*D_NET *13 0.000773371
*CONN
*I *134:A I *D sky130_fd_sc_hd__buf_2
*I *130:X O *D sky130_fd_sc_hd__clkbuf_1
*CAP
1 *134:A 0
2 *130:X 0.000366251
3 *13:10 0.000366251
4 P[0] *13:10 9.86551e-06
5 *11:10 *13:10 3.10046e-05
*RES
1 *130:X *13:10 43.3857 
2 *13:10 *134:A 38 
*END

*D_NET *14 0.00258233
*CONN
*I *135:A I *D sky130_fd_sc_hd__buf_2
*I *128:X O *D sky130_fd_sc_hd__or2_1
*CAP
1 *135:A 0
2 *128:X 0.00129116
3 *14:6 0.00129116
*RES
1 *128:X *14:6 46.9664 
2 *14:6 *135:A 23 
*END

*D_NET *15 0.00317672
*CONN
*I *136:A I *D sky130_fd_sc_hd__buf_2
*I *129:X O *D sky130_fd_sc_hd__and2_1
*CAP
1 *136:A 0
2 *129:X 0.000126229
3 *15:12 0.00146213
4 *15:8 0.00158836
5 *15:8 *16:8 0
*RES
1 *129:X *15:8 40.2579 
2 *15:8 *15:12 41.3486 
3 *15:12 *136:A 23 
*END

*D_NET *16 0.000356448
*CONN
*I *130:A I *D sky130_fd_sc_hd__clkbuf_1
*I *127:Y O *D sky130_fd_sc_hd__nor2_1
*CAP
1 *130:A 4.24211e-05
2 *127:Y 0.000115376
3 *16:8 0.000157797
4 *11:10 *16:8 4.08537e-05
5 *15:8 *16:8 0
*RES
1 *127:Y *16:8 40.2579 
2 *16:8 *130:A 38.6214 
*END
