*SPEF "ieee 1481-1999"
*DESIGN "SARSA_RUIDO_VENTAJA_e5"
*DATE "11:29:36 Friday September 12, 2025"
*VENDOR "The OpenROAD Project"
*PROGRAM "OpenROAD"
*VERSION "edf00dff99f6c40d67a30c0e22a8191c5d2ed9d6"
*DESIGN_FLOW "NAME_SCOPE LOCAL" "PIN_CAP NONE"
*DIVIDER /
*DELIMITER :
*BUS_DELIMITER []
*T_UNIT 1 NS
*C_UNIT 1 PF
*R_UNIT 1 OHM
*L_UNIT 1 HENRY

*NAME_MAP
*1 A[0]
*2 A[1]
*3 B[0]
*4 B[1]
*5 P[0]
*6 P[1]
*7 P[2]
*8 P[3]
*11 _00_
*12 _01_
*13 _02_
*14 _03_
*15 net1
*16 net2
*17 net3
*18 net4
*19 net5
*20 net6
*21 net7
*22 net8
*23 FILLER_0_15
*24 FILLER_0_27
*25 FILLER_0_29
*26 FILLER_0_3
*27 FILLER_0_34
*28 FILLER_0_42
*29 FILLER_0_49
*30 FILLER_0_55
*31 FILLER_0_57
*32 FILLER_0_69
*33 FILLER_1_15
*34 FILLER_1_27
*35 FILLER_1_3
*36 FILLER_1_39
*37 FILLER_1_51
*38 FILLER_1_55
*39 FILLER_1_57
*40 FILLER_1_69
*41 FILLER_2_15
*42 FILLER_2_27
*43 FILLER_2_29
*44 FILLER_2_3
*45 FILLER_2_41
*46 FILLER_2_53
*47 FILLER_2_65
*48 FILLER_2_77
*49 FILLER_3_15
*50 FILLER_3_27
*51 FILLER_3_3
*52 FILLER_3_41
*53 FILLER_3_53
*54 FILLER_3_57
*55 FILLER_3_69
*56 FILLER_4_15
*57 FILLER_4_27
*58 FILLER_4_29
*59 FILLER_4_3
*60 FILLER_4_41
*61 FILLER_4_53
*62 FILLER_4_65
*63 FILLER_4_77
*64 FILLER_5_15
*65 FILLER_5_27
*66 FILLER_5_3
*67 FILLER_5_35
*68 FILLER_5_42
*69 FILLER_5_54
*70 FILLER_5_57
*71 FILLER_5_69
*72 FILLER_6_15
*73 FILLER_6_27
*74 FILLER_6_29
*75 FILLER_6_3
*76 FILLER_6_41
*77 FILLER_6_53
*78 FILLER_6_65
*79 FILLER_6_77
*80 FILLER_7_15
*81 FILLER_7_27
*82 FILLER_7_3
*83 FILLER_7_39
*84 FILLER_7_44
*85 FILLER_7_57
*86 FILLER_7_69
*87 FILLER_8_15
*88 FILLER_8_27
*89 FILLER_8_29
*90 FILLER_8_3
*91 FILLER_8_51
*92 FILLER_8_63
*93 FILLER_8_75
*94 FILLER_9_15
*95 FILLER_9_27
*96 FILLER_9_29
*97 FILLER_9_3
*98 FILLER_9_34
*99 FILLER_9_48
*100 FILLER_9_57
*101 FILLER_9_62
*102 FILLER_9_74
*103 FILLER_9_80
*104 PHY_EDGE_ROW_0_Left_10
*105 PHY_EDGE_ROW_0_Right_0
*106 PHY_EDGE_ROW_1_Left_11
*107 PHY_EDGE_ROW_1_Right_1
*108 PHY_EDGE_ROW_2_Left_12
*109 PHY_EDGE_ROW_2_Right_2
*110 PHY_EDGE_ROW_3_Left_13
*111 PHY_EDGE_ROW_3_Right_3
*112 PHY_EDGE_ROW_4_Left_14
*113 PHY_EDGE_ROW_4_Right_4
*114 PHY_EDGE_ROW_5_Left_15
*115 PHY_EDGE_ROW_5_Right_5
*116 PHY_EDGE_ROW_6_Left_16
*117 PHY_EDGE_ROW_6_Right_6
*118 PHY_EDGE_ROW_7_Left_17
*119 PHY_EDGE_ROW_7_Right_7
*120 PHY_EDGE_ROW_8_Left_18
*121 PHY_EDGE_ROW_8_Right_8
*122 PHY_EDGE_ROW_9_Left_19
*123 PHY_EDGE_ROW_9_Right_9
*124 TAP_TAPCELL_ROW_0_20
*125 TAP_TAPCELL_ROW_0_21
*126 TAP_TAPCELL_ROW_1_22
*127 TAP_TAPCELL_ROW_2_23
*128 TAP_TAPCELL_ROW_3_24
*129 TAP_TAPCELL_ROW_4_25
*130 TAP_TAPCELL_ROW_5_26
*131 TAP_TAPCELL_ROW_6_27
*132 TAP_TAPCELL_ROW_7_28
*133 TAP_TAPCELL_ROW_8_29
*134 TAP_TAPCELL_ROW_9_30
*135 TAP_TAPCELL_ROW_9_31
*136 _04_
*137 _05_
*138 _06_
*139 _07_
*140 _08_
*141 _09_
*142 _10_
*143 _11_
*144 input1
*145 input2
*146 input3
*147 input4
*148 output5
*149 output6
*150 output7
*151 output8

*PORTS
A[0] I
A[1] I
B[0] I
B[1] I
P[0] O
P[1] O
P[2] O
P[3] O

*D_NET *1 0.00101131
*CONN
*P A[0] I
*I *144:A I *D sky130_fd_sc_hd__buf_1
*CAP
1 A[0] 0.000505653
2 *144:A 0.000505653
3 *144:A P[3] 0
*RES
1 A[0] *144:A 23.8714 
*END

*D_NET *2 0.0010171
*CONN
*P A[1] I
*I *145:A I *D sky130_fd_sc_hd__clkbuf_1
*CAP
1 A[1] 0.000503423
2 *145:A 0.000503423
3 *145:A P[0] 0
4 *145:A P[3] 0
5 *145:A *151:A 1.02504e-05
*RES
1 A[1] *145:A 23.8714 
*END

*D_NET *3 0.00084331
*CONN
*P B[0] I
*I *146:A I *D sky130_fd_sc_hd__buf_1
*CAP
1 B[0] 0.000421655
2 *146:A 0.000421655
3 *146:A P[2] 0
*RES
1 B[0] *146:A 21.8357 
*END

*D_NET *4 0.000930923
*CONN
*P B[1] I
*I *147:A I *D sky130_fd_sc_hd__buf_1
*CAP
1 B[1] 0.000465461
2 *147:A 0.000465461
3 *147:A P[0] 0
4 *147:A *148:A 0
*RES
1 B[1] *147:A 23.05 
*END

*D_NET *5 0.000911701
*CONN
*P P[0] O
*I *148:X O *D sky130_fd_sc_hd__buf_2
*CAP
1 P[0] 0.00045585
2 *148:X 0.00045585
3 *145:A P[0] 0
4 *147:A P[0] 0
*RES
1 *148:X P[0] 22.8536 
*END

*D_NET *6 0.000937294
*CONN
*P P[1] O
*I *149:X O *D sky130_fd_sc_hd__buf_2
*CAP
1 P[1] 0.000468647
2 *149:X 0.000468647
3 P[1] P[2] 0
*RES
1 *149:X P[1] 22.3 
*END

*D_NET *7 0.00095201
*CONN
*P P[2] O
*I *150:X O *D sky130_fd_sc_hd__buf_2
*CAP
1 P[2] 0.000468422
2 *150:X 0.000468422
3 P[2] *17:10 1.51657e-05
4 P[1] P[2] 0
5 *146:A P[2] 0
*RES
1 *150:X P[2] 22.05 
*END

*D_NET *8 0.000951893
*CONN
*P P[3] O
*I *151:X O *D sky130_fd_sc_hd__buf_2
*CAP
1 P[3] 0.000475946
2 *151:X 0.000475946
3 *144:A P[3] 0
4 *145:A P[3] 0
*RES
1 *151:X P[3] 23.2643 
*END

*D_NET *11 0.0017166
*CONN
*I *142:A1 I *D sky130_fd_sc_hd__a21oi_1
*I *143:B1_N I *D sky130_fd_sc_hd__a21boi_1
*I *137:X O *D sky130_fd_sc_hd__and2_1
*CAP
1 *142:A1 0
2 *143:B1_N 0.000175965
3 *137:X 0.000409268
4 *11:12 0.000585232
5 *143:B1_N *150:A 1.80632e-05
6 *143:B1_N *17:10 4.46186e-06
7 *143:B1_N *17:29 6.30388e-05
8 *11:12 *136:A 6.45537e-05
9 *11:12 *142:A2 0.000153054
10 *11:12 *142:B1 0.000242961
11 *11:12 *17:29 0
12 *11:12 *18:14 0
*RES
1 *137:X *11:12 23.9964 
2 *11:12 *143:B1_N 17.1036 
3 *11:12 *142:A1 13.8 
*END

*D_NET *12 0.00215871
*CONN
*I *142:B1 I *D sky130_fd_sc_hd__a21oi_1
*I *140:Y O *D sky130_fd_sc_hd__nor2_1
*CAP
1 *142:B1 0.000589352
2 *140:Y 0.000589352
3 *142:B1 *136:A 0.000126439
4 *142:B1 *140:A 4.82947e-05
5 *142:B1 *142:A2 0.000153054
6 *142:B1 *148:A 7.6997e-05
7 *142:B1 *16:16 7.84427e-05
8 *142:B1 *17:29 0.000108496
9 *142:B1 *18:14 5.69387e-05
10 *142:B1 *18:16 8.83836e-05
11 *11:12 *142:B1 0.000242961
*RES
1 *140:Y *142:B1 41.0286 
*END

*D_NET *13 0.000520997
*CONN
*I *142:A2 I *D sky130_fd_sc_hd__a21oi_1
*I *141:Y O *D sky130_fd_sc_hd__nand2b_1
*CAP
1 *142:A2 0.000107444
2 *141:Y 0.000107444
3 *142:B1 *142:A2 0.000153054
4 *11:12 *142:A2 0.000153054
*RES
1 *141:Y *142:A2 30.4929 
*END

*D_NET *14 0.00083685
*CONN
*I *139:A2 I *D sky130_fd_sc_hd__a21o_1
*I *136:Y O *D sky130_fd_sc_hd__inv_2
*CAP
1 *139:A2 0.000401707
2 *136:Y 0.000401707
3 *139:A2 *15:12 3.34366e-05
4 *139:A2 *15:25 0
*RES
1 *136:Y *139:A2 32.6536 
*END

*D_NET *15 0.00472542
*CONN
*I *139:A1 I *D sky130_fd_sc_hd__a21o_1
*I *141:B I *D sky130_fd_sc_hd__nand2b_1
*I *143:A1 I *D sky130_fd_sc_hd__a21boi_1
*I *138:A I *D sky130_fd_sc_hd__and4_1
*I *144:X O *D sky130_fd_sc_hd__buf_1
*CAP
1 *139:A1 0
2 *141:B 0.000160244
3 *143:A1 0.000474017
4 *138:A 0.000108915
5 *144:X 0.000350662
6 *15:25 0.000924403
7 *15:14 0.000469535
8 *15:12 0.000421141
9 *138:A *137:B 0.000181995
10 *138:A *138:B 5.33005e-05
11 *138:A *138:C 0.000183822
12 *138:A *148:A 7.92229e-06
13 *138:A *16:16 4.33899e-05
14 *138:A *22:6 9.83388e-05
15 *141:B *138:C 0.000129297
16 *141:B *141:A_N 5.49489e-05
17 *143:A1 *149:A 0.000172815
18 *15:12 *151:A 0.000255723
19 *15:14 *151:A 4.38128e-05
20 *15:14 *22:6 5.52302e-05
21 *15:25 *138:C 0.000502466
22 *139:A2 *15:12 3.34366e-05
23 *139:A2 *15:25 0
*RES
1 *144:X *15:12 25.0857 
2 *15:12 *15:14 1.35714 
3 *15:14 *138:A 12.7107 
4 *15:14 *15:25 11.6071 
5 *15:25 *143:A1 20.8714 
6 *15:25 *141:B 16.9473 
7 *15:12 *139:A1 9.3 
*END

*D_NET *16 0.00124294
*CONN
*I *140:B I *D sky130_fd_sc_hd__nor2_1
*I *138:D I *D sky130_fd_sc_hd__and4_1
*I *137:B I *D sky130_fd_sc_hd__and2_1
*I *145:X O *D sky130_fd_sc_hd__clkbuf_1
*CAP
1 *140:B 3.19014e-05
2 *138:D 0
3 *137:B 0.000108226
4 *145:X 3.00788e-05
5 *16:16 0.000262842
6 *16:6 0.000216596
7 *137:B *137:A 0.000185541
8 *137:B *148:A 2.07878e-05
9 *140:B *140:A 1.8461e-05
10 *16:16 *148:A 6.46752e-05
11 *138:A *137:B 0.000181995
12 *138:A *16:16 4.33899e-05
13 *142:B1 *16:16 7.84427e-05
*RES
1 *145:X *16:6 9.83571 
2 *16:6 *16:16 12.3214 
3 *16:16 *137:B 12.3 
4 *16:16 *138:D 9.3 
5 *16:6 *140:B 10.0321 
*END

*D_NET *17 0.00404298
*CONN
*I *138:C I *D sky130_fd_sc_hd__and4_1
*I *141:A_N I *D sky130_fd_sc_hd__nand2b_1
*I *143:A2 I *D sky130_fd_sc_hd__a21boi_1
*I *146:X O *D sky130_fd_sc_hd__buf_1
*CAP
1 *138:C 0.000452109
2 *141:A_N 2.55335e-05
3 *143:A2 0
4 *146:X 0.000553345
5 *17:29 0.000785616
6 *17:10 0.000861318
7 *17:10 *150:A 0.000249567
8 *17:29 *149:A 5.37991e-05
9 P[2] *17:10 1.51657e-05
10 *138:A *138:C 0.000183822
11 *141:B *138:C 0.000129297
12 *141:B *141:A_N 5.49489e-05
13 *142:B1 *17:29 0.000108496
14 *143:B1_N *17:10 4.46186e-06
15 *143:B1_N *17:29 6.30388e-05
16 *11:12 *17:29 0
17 *15:25 *138:C 0.000502466
*RES
1 *146:X *17:10 23.6036 
2 *17:10 *143:A2 13.8 
3 *17:10 *17:29 19.5536 
4 *17:29 *141:A_N 9.83571 
5 *17:29 *138:C 27.925 
*END

*D_NET *18 0.00212896
*CONN
*I *140:A I *D sky130_fd_sc_hd__nor2_1
*I *137:A I *D sky130_fd_sc_hd__and2_1
*I *138:B I *D sky130_fd_sc_hd__and4_1
*I *136:A I *D sky130_fd_sc_hd__inv_2
*I *147:X O *D sky130_fd_sc_hd__buf_1
*CAP
1 *140:A 0.000115344
2 *137:A 0.000121569
3 *138:B 4.36033e-05
4 *136:A 0.000113017
5 *147:X 0.000159147
6 *18:16 0.00020847
7 *18:14 0.000303497
8 *18:8 0.000404569
9 *18:14 *148:A 1.78353e-05
10 *137:B *137:A 0.000185541
11 *138:A *138:B 5.33005e-05
12 *140:B *140:A 1.8461e-05
13 *142:B1 *136:A 0.000126439
14 *142:B1 *140:A 4.82947e-05
15 *142:B1 *18:14 5.69387e-05
16 *142:B1 *18:16 8.83836e-05
17 *11:12 *136:A 6.45537e-05
18 *11:12 *18:14 0
*RES
1 *147:X *18:8 11.9071 
2 *18:8 *18:14 7.13393 
3 *18:14 *18:16 1.1875 
4 *18:16 *136:A 16.3893 
5 *18:16 *138:B 14.3357 
6 *18:14 *137:A 16.3893 
7 *18:8 *140:A 11.4964 
*END

*D_NET *19 0.000645064
*CONN
*I *148:A I *D sky130_fd_sc_hd__buf_2
*I *139:X O *D sky130_fd_sc_hd__a21o_1
*CAP
1 *148:A 0.000218029
2 *139:X 0.000218029
3 *148:A *22:6 2.07878e-05
4 *137:B *148:A 2.07878e-05
5 *138:A *148:A 7.92229e-06
6 *142:B1 *148:A 7.6997e-05
7 *147:A *148:A 0
8 *16:16 *148:A 6.46752e-05
9 *18:14 *148:A 1.78353e-05
*RES
1 *139:X *148:A 31.3143 
*END

*D_NET *20 0.00161518
*CONN
*I *149:A I *D sky130_fd_sc_hd__buf_2
*I *142:Y O *D sky130_fd_sc_hd__a21oi_1
*CAP
1 *149:A 0.000694284
2 *142:Y 0.000694284
3 *149:A *150:A 0
4 *143:A1 *149:A 0.000172815
5 *17:29 *149:A 5.37991e-05
*RES
1 *142:Y *149:A 40.225 
*END

*D_NET *21 0.000947505
*CONN
*I *150:A I *D sky130_fd_sc_hd__buf_2
*I *143:Y O *D sky130_fd_sc_hd__a21boi_1
*CAP
1 *150:A 0.000339937
2 *143:Y 0.000339937
3 *143:B1_N *150:A 1.80632e-05
4 *149:A *150:A 0
5 *17:10 *150:A 0.000249567
*RES
1 *143:Y *150:A 34.9393 
*END

*D_NET *22 0.00105024
*CONN
*I *151:A I *D sky130_fd_sc_hd__buf_2
*I *139:B1 I *D sky130_fd_sc_hd__a21o_1
*I *138:X O *D sky130_fd_sc_hd__and4_1
*CAP
1 *151:A 0.000238764
2 *139:B1 0
3 *138:X 4.42849e-05
4 *22:6 0.000283049
5 *138:A *22:6 9.83388e-05
6 *145:A *151:A 1.02504e-05
7 *148:A *22:6 2.07878e-05
8 *15:12 *151:A 0.000255723
9 *15:14 *151:A 4.38128e-05
10 *15:14 *22:6 5.52302e-05
*RES
1 *138:X *22:6 10.6571 
2 *22:6 *139:B1 9.3 
3 *22:6 *151:A 23.4607 
*END
