*SPEF "ieee 1481-1999"
*DESIGN "mult4_SARSA_RUIDO_e9_SARSA_RUIDO_e9_SARSA_RUIDO_e9_SARSA_RUIDO_e9"
*DATE "14:25:41 Tuesday September 16, 2025"
*VENDOR "The OpenROAD Project"
*PROGRAM "OpenROAD"
*VERSION "edf00dff99f6c40d67a30c0e22a8191c5d2ed9d6"
*DESIGN_FLOW "NAME_SCOPE LOCAL" "PIN_CAP NONE"
*DIVIDER /
*DELIMITER :
*BUS_DELIMITER []
*T_UNIT 1 NS
*C_UNIT 1 PF
*R_UNIT 1 OHM
*L_UNIT 1 HENRY

*NAME_MAP
*1 A[0]
*2 A[1]
*3 A[2]
*4 A[3]
*5 B[0]
*6 B[1]
*7 B[2]
*8 B[3]
*9 P[0]
*10 P[1]
*11 P[2]
*12 P[3]
*13 P[4]
*14 P[5]
*15 P[6]
*16 P[7]
*19 _00_
*20 _01_
*21 _02_
*22 _03_
*23 _04_
*24 _05_
*25 _06_
*26 _07_
*27 _08_
*28 _09_
*29 _10_
*30 _11_
*31 _12_
*32 _13_
*33 _14_
*34 _15_
*35 _16_
*36 _17_
*37 _18_
*38 _19_
*39 _20_
*40 _21_
*41 _22_
*42 _23_
*43 mul_ll\.pp1
*44 mul_ll\.pp2
*45 net1
*46 net10
*47 net11
*48 net12
*49 net13
*50 net14
*51 net15
*52 net16
*53 net2
*54 net3
*55 net4
*56 net5
*57 net6
*58 net7
*59 net8
*60 net9
*61 FILLER_0_15
*62 FILLER_0_27
*63 FILLER_0_29
*64 FILLER_0_3
*65 FILLER_0_34
*66 FILLER_0_48
*67 FILLER_0_57
*68 FILLER_0_69
*69 FILLER_1_15
*70 FILLER_1_27
*71 FILLER_1_3
*72 FILLER_1_39
*73 FILLER_1_45
*74 FILLER_1_51
*75 FILLER_1_57
*76 FILLER_1_66
*77 FILLER_1_78
*78 FILLER_2_19
*79 FILLER_2_27
*80 FILLER_2_29
*81 FILLER_2_41
*82 FILLER_2_65
*83 FILLER_2_7
*84 FILLER_3_11
*85 FILLER_3_16
*86 FILLER_3_3
*87 FILLER_3_42
*88 FILLER_3_54
*89 FILLER_3_69
*90 FILLER_4_19
*91 FILLER_4_26
*92 FILLER_4_29
*93 FILLER_4_41
*94 FILLER_4_53
*95 FILLER_4_57
*96 FILLER_4_7
*97 FILLER_4_72
*98 FILLER_5_18
*99 FILLER_5_22
*100 FILLER_5_28
*101 FILLER_5_39
*102 FILLER_5_51
*103 FILLER_5_6
*104 FILLER_5_70
*105 FILLER_6_15
*106 FILLER_6_29
*107 FILLER_6_3
*108 FILLER_6_39
*109 FILLER_6_51
*110 FILLER_6_62
*111 FILLER_6_70
*112 FILLER_7_19
*113 FILLER_7_33
*114 FILLER_7_42
*115 FILLER_7_54
*116 FILLER_7_57
*117 FILLER_7_63
*118 FILLER_7_67
*119 FILLER_7_7
*120 FILLER_7_75
*121 FILLER_8_15
*122 FILLER_8_26
*123 FILLER_8_29
*124 FILLER_8_3
*125 FILLER_8_41
*126 FILLER_8_53
*127 FILLER_8_67
*128 FILLER_8_79
*129 FILLER_9_15
*130 FILLER_9_23
*131 FILLER_9_29
*132 FILLER_9_3
*133 FILLER_9_41
*134 FILLER_9_53
*135 FILLER_9_57
*136 FILLER_9_63
*137 FILLER_9_75
*138 PHY_EDGE_ROW_0_Left_10
*139 PHY_EDGE_ROW_0_Right_0
*140 PHY_EDGE_ROW_1_Left_11
*141 PHY_EDGE_ROW_1_Right_1
*142 PHY_EDGE_ROW_2_Left_12
*143 PHY_EDGE_ROW_2_Right_2
*144 PHY_EDGE_ROW_3_Left_13
*145 PHY_EDGE_ROW_3_Right_3
*146 PHY_EDGE_ROW_4_Left_14
*147 PHY_EDGE_ROW_4_Right_4
*148 PHY_EDGE_ROW_5_Left_15
*149 PHY_EDGE_ROW_5_Right_5
*150 PHY_EDGE_ROW_6_Left_16
*151 PHY_EDGE_ROW_6_Right_6
*152 PHY_EDGE_ROW_7_Left_17
*153 PHY_EDGE_ROW_7_Right_7
*154 PHY_EDGE_ROW_8_Left_18
*155 PHY_EDGE_ROW_8_Right_8
*156 PHY_EDGE_ROW_9_Left_19
*157 PHY_EDGE_ROW_9_Right_9
*158 TAP_TAPCELL_ROW_0_20
*159 TAP_TAPCELL_ROW_0_21
*160 TAP_TAPCELL_ROW_1_22
*161 TAP_TAPCELL_ROW_2_23
*162 TAP_TAPCELL_ROW_3_24
*163 TAP_TAPCELL_ROW_4_25
*164 TAP_TAPCELL_ROW_5_26
*165 TAP_TAPCELL_ROW_6_27
*166 TAP_TAPCELL_ROW_7_28
*167 TAP_TAPCELL_ROW_8_29
*168 TAP_TAPCELL_ROW_9_30
*169 TAP_TAPCELL_ROW_9_31
*170 _24_
*171 _25_
*172 _26_
*173 _27_
*174 _28_
*175 _29_
*176 _30_
*177 _31_
*178 _32_
*179 _33_
*180 _34_
*181 _35_
*182 _36_
*183 _37_
*184 _38_
*185 _39_
*186 _40_
*187 _41_
*188 _42_
*189 _43_
*190 _44_
*191 _45_
*192 _46_
*193 _47_
*194 _48_
*195 _49_
*196 _50_
*197 _51_
*198 _52_
*199 _53_
*200 _54_
*201 _55_
*202 _56_
*203 _57_
*204 input1
*205 input2
*206 input3
*207 input4
*208 input5
*209 input6
*210 input7
*211 input8
*212 output10
*213 output11
*214 output12
*215 output13
*216 output14
*217 output15
*218 output16
*219 output9

*PORTS
A[0] I
A[1] I
A[2] I
A[3] I
B[0] I
B[1] I
B[2] I
B[3] I
P[0] O
P[1] O
P[2] O
P[3] O
P[4] O
P[5] O
P[6] O
P[7] O

*D_NET *1 0.00084331
*CONN
*P A[0] I
*I *204:A I *D sky130_fd_sc_hd__buf_1
*CAP
1 A[0] 0.000421655
2 *204:A 0.000421655
3 *204:A *206:A 0
*RES
1 A[0] *204:A 21.8357 
*END

*D_NET *2 0.00064005
*CONN
*P A[1] I
*I *205:A I *D sky130_fd_sc_hd__buf_1
*CAP
1 A[1] 0.000235577
2 *205:A 0.000235577
3 *205:A P[2] 8.57347e-05
4 *205:A *210:A 8.31618e-05
*RES
1 A[1] *205:A 19.9443 
*END

*D_NET *3 0.000911424
*CONN
*P A[2] I
*I *206:A I *D sky130_fd_sc_hd__dlymetal6s2s_1
*CAP
1 A[2] 0.000413641
2 *206:A 0.000413641
3 *206:A *208:A 5.52302e-05
4 *206:A *45:10 2.89114e-05
5 *204:A *206:A 0
*RES
1 A[2] *206:A 21.8357 
*END

*D_NET *4 0.000500607
*CONN
*P A[3] I
*I *207:A I *D sky130_fd_sc_hd__buf_1
*CAP
1 A[3] 0.000169128
2 *207:A 0.000169128
3 *207:A P[6] 8.57347e-05
4 *207:A *211:A 7.66163e-05
*RES
1 A[3] *207:A 18.4264 
*END

*D_NET *5 0.00151873
*CONN
*P B[0] I
*I *208:A I *D sky130_fd_sc_hd__buf_1
*CAP
1 B[0] 0.000660926
2 *208:A 0.000660926
3 *208:A P[0] 0
4 *208:A *45:10 0.00014165
5 *206:A *208:A 5.52302e-05
*RES
1 B[0] *208:A 26.3179 
*END

*D_NET *6 0.000667626
*CONN
*P B[1] I
*I *209:A I *D sky130_fd_sc_hd__buf_1
*CAP
1 B[1] 0.000318817
2 *209:A 0.000318817
3 *209:A P[1] 2.99915e-05
4 *209:A P[4] 0
*RES
1 B[1] *209:A 21.391 
*END

*D_NET *7 0.000655617
*CONN
*P B[2] I
*I *210:A I *D sky130_fd_sc_hd__buf_1
*CAP
1 B[2] 0.000244647
2 *210:A 0.000244647
3 *210:A *211:A 8.31618e-05
4 *210:A *25:12 0
5 *205:A *210:A 8.31618e-05
*RES
1 B[2] *210:A 19.6407 
*END

*D_NET *8 0.000511832
*CONN
*P B[3] I
*I *211:A I *D sky130_fd_sc_hd__dlymetal6s2s_1
*CAP
1 B[3] 0.000176027
2 *211:A 0.000176027
3 *207:A *211:A 7.66163e-05
4 *210:A *211:A 8.31618e-05
*RES
1 B[3] *211:A 18.73 
*END

*D_NET *9 0.000933367
*CONN
*P P[0] O
*I *219:X O *D sky130_fd_sc_hd__buf_2
*CAP
1 P[0] 0.000463658
2 *219:X 0.000463658
3 P[0] *219:A 6.05161e-06
4 *208:A P[0] 0
*RES
1 *219:X P[0] 22.3 
*END

*D_NET *10 0.000779072
*CONN
*P P[1] O
*I *212:X O *D sky130_fd_sc_hd__buf_2
*CAP
1 P[1] 0.000359545
2 *212:X 0.000359545
3 P[1] P[3] 2.99915e-05
4 P[1] *212:A 0
5 *209:A P[1] 2.99915e-05
*RES
1 *212:X P[1] 21.4981 
*END

*D_NET *11 0.000512267
*CONN
*P P[2] O
*I *213:X O *D sky130_fd_sc_hd__buf_2
*CAP
1 P[2] 0.000213266
2 *213:X 0.000213266
3 *205:A P[2] 8.57347e-05
*RES
1 *213:X P[2] 18.4985 
*END

*D_NET *12 0.000635508
*CONN
*P P[3] O
*I *214:X O *D sky130_fd_sc_hd__buf_2
*CAP
1 P[3] 0.000302758
2 *214:X 0.000302758
3 P[1] P[3] 2.99915e-05
*RES
1 *214:X P[3] 20.891 
*END

*D_NET *13 0.00072885
*CONN
*P P[4] O
*I *215:X O *D sky130_fd_sc_hd__buf_2
*CAP
1 P[4] 0.000364425
2 *215:X 0.000364425
3 *209:A P[4] 0
*RES
1 *215:X P[4] 20.891 
*END

*D_NET *14 0.000951893
*CONN
*P P[5] O
*I *216:X O *D sky130_fd_sc_hd__buf_2
*CAP
1 P[5] 0.000475946
2 *216:X 0.000475946
*RES
1 *216:X P[5] 23.2643 
*END

*D_NET *15 0.000627103
*CONN
*P P[6] O
*I *217:X O *D sky130_fd_sc_hd__buf_2
*CAP
1 P[6] 0.000270684
2 *217:X 0.000270684
3 *207:A P[6] 8.57347e-05
*RES
1 *217:X P[6] 19.4092 
*END

*D_NET *16 0.000951893
*CONN
*P P[7] O
*I *218:X O *D sky130_fd_sc_hd__buf_2
*CAP
1 P[7] 0.000475946
2 *218:X 0.000475946
*RES
1 *218:X P[7] 23.2643 
*END

*D_NET *19 0.000412737
*CONN
*I *176:A I *D sky130_fd_sc_hd__xor2_1
*I *172:Y O *D sky130_fd_sc_hd__nand2_1
*CAP
1 *176:A 0.000190435
2 *172:Y 0.000190435
3 *176:A *172:B 3.18676e-05
*RES
1 *172:Y *176:A 22.0286 
*END

*D_NET *20 0.00117274
*CONN
*I *175:A2 I *D sky130_fd_sc_hd__a21bo_1
*I *187:B1 I *D sky130_fd_sc_hd__a32o_1
*I *173:X O *D sky130_fd_sc_hd__and3_1
*CAP
1 *175:A2 0
2 *187:B1 0.000179745
3 *173:X 0.00013356
4 *20:12 0.000313305
5 *187:B1 *176:B 1.24368e-05
6 *187:B1 *187:A3 3.66478e-05
7 *187:B1 *187:B2 0.000268135
8 *20:12 *45:23 9.90431e-05
9 *20:12 *58:16 0.000129868
*RES
1 *173:X *20:12 20.8893 
2 *20:12 *187:B1 13.2375 
3 *20:12 *175:A2 9.3 
*END

*D_NET *21 0.000621234
*CONN
*I *175:B1_N I *D sky130_fd_sc_hd__a21bo_1
*I *187:A3 I *D sky130_fd_sc_hd__a32o_1
*I *174:X O *D sky130_fd_sc_hd__a22o_1
*CAP
1 *175:B1_N 0
2 *187:A3 0.000149046
3 *174:X 9.87395e-05
4 *21:10 0.000247786
5 *187:A3 *187:A2 3.18676e-05
6 *187:A3 *187:B2 5.71472e-05
7 *21:10 *54:31 0
8 *21:10 *58:16 0
9 *187:B1 *187:A3 3.66478e-05
*RES
1 *174:X *21:10 19.9429 
2 *21:10 *187:A3 12.3179 
3 *21:10 *175:B1_N 9.3 
*END

*D_NET *22 0.000441675
*CONN
*I *176:B I *D sky130_fd_sc_hd__xor2_1
*I *175:X O *D sky130_fd_sc_hd__a21bo_1
*CAP
1 *176:B 0.000186733
2 *175:X 0.000186733
3 *176:B *187:A1 0
4 *176:B *213:A 5.57727e-05
5 *187:B1 *176:B 1.24368e-05
*RES
1 *175:X *176:B 30.4929 
*END

*D_NET *23 0.000650182
*CONN
*I *182:A I *D sky130_fd_sc_hd__xnor2_1
*I *177:Y O *D sky130_fd_sc_hd__nand2_1
*CAP
1 *182:A 0.000199677
2 *177:Y 0.000199677
3 *182:A *192:A2 0.000185643
4 *182:A *37:12 6.5185e-05
5 *182:A *59:10 0
*RES
1 *177:Y *182:A 31.0107 
*END

*D_NET *24 0.000472627
*CONN
*I *199:A I *D sky130_fd_sc_hd__xnor2_1
*I *178:Y O *D sky130_fd_sc_hd__nand2_1
*CAP
1 *199:A 8.71095e-05
2 *178:Y 8.71095e-05
3 *199:A *198:A 0.000116921
4 *199:A *198:B 0.000181487
*RES
1 *178:Y *199:A 30.1893 
*END

*D_NET *25 0.00105267
*CONN
*I *181:A_N I *D sky130_fd_sc_hd__and2b_1
*I *192:B1 I *D sky130_fd_sc_hd__a31o_1
*I *179:X O *D sky130_fd_sc_hd__and4_1
*CAP
1 *181:A_N 0
2 *192:B1 9.67869e-05
3 *179:X 0.000114005
4 *25:12 0.000210792
5 *192:B1 *181:B 5.52302e-05
6 *192:B1 *192:A3 9.60875e-05
7 *192:B1 *58:8 0.000315158
8 *25:12 *55:38 6.74911e-05
9 *25:12 *58:8 9.71197e-05
10 *210:A *25:12 0
*RES
1 *179:X *25:12 20.8893 
2 *25:12 *192:B1 12.3 
3 *25:12 *181:A_N 9.3 
*END

*D_NET *26 0.000859039
*CONN
*I *181:B I *D sky130_fd_sc_hd__and2b_1
*I *192:A3 I *D sky130_fd_sc_hd__a31o_1
*I *180:X O *D sky130_fd_sc_hd__a22o_1
*CAP
1 *181:B 2.26734e-05
2 *192:A3 8.70376e-05
3 *180:X 6.28746e-05
4 *26:10 0.000172586
5 *192:A3 *177:A 5.33334e-05
6 *192:A3 *58:8 1.5424e-05
7 *192:A3 *59:34 0.00018372
8 *26:10 *55:38 0
9 *26:10 *59:10 3.17148e-05
10 *26:10 *59:14 7.83587e-05
11 *192:B1 *181:B 5.52302e-05
12 *192:B1 *192:A3 9.60875e-05
*RES
1 *180:X *26:10 19.6393 
2 *26:10 *192:A3 11.9071 
3 *26:10 *181:B 9.83571 
*END

*D_NET *27 0.000595583
*CONN
*I *182:B I *D sky130_fd_sc_hd__xnor2_1
*I *181:X O *D sky130_fd_sc_hd__and2b_1
*CAP
1 *182:B 0.000191207
2 *181:X 0.000191207
3 *182:B *55:38 0
4 *182:B *59:8 5.33005e-05
5 *182:B *59:10 0.000128154
6 *182:B *59:60 3.17148e-05
*RES
1 *181:X *182:B 31.3143 
*END

*D_NET *28 0.00278963
*CONN
*I *197:A1 I *D sky130_fd_sc_hd__a221o_1
*I *189:B1 I *D sky130_fd_sc_hd__o21ai_1
*I *190:A I *D sky130_fd_sc_hd__or3_1
*I *182:Y O *D sky130_fd_sc_hd__xnor2_1
*CAP
1 *197:A1 0
2 *189:B1 0
3 *190:A 6.75839e-05
4 *182:Y 0.000419664
5 *28:18 0.000358238
6 *28:12 0.000710318
7 *190:A *191:B 4.79842e-05
8 *190:A *30:8 6.0038e-05
9 *190:A *30:21 9.4724e-05
10 *190:A *39:12 0
11 *28:12 *197:A2 2.04026e-05
12 *28:12 *198:A 0
13 *28:12 *41:14 0.000666637
14 *28:12 *59:60 0
15 *28:18 *189:A1 3.57366e-05
16 *28:18 *197:A2 2.90117e-05
17 *28:18 *197:B2 7.80151e-05
18 *28:18 *197:C1 9.64007e-05
19 *28:18 *30:21 7.26655e-05
20 *28:18 *35:8 3.22063e-05
*RES
1 *182:Y *28:12 28.0679 
2 *28:12 *28:18 5.91071 
3 *28:18 *190:A 20.55 
4 *28:18 *189:B1 9.3 
5 *28:12 *197:A1 9.3 
*END

*D_NET *29 0.00215884
*CONN
*I *197:B2 I *D sky130_fd_sc_hd__a221o_1
*I *193:A I *D sky130_fd_sc_hd__nor2_1
*I *194:A I *D sky130_fd_sc_hd__and2_1
*I *184:B I *D sky130_fd_sc_hd__and2_1
*I *185:B I *D sky130_fd_sc_hd__nand2_1
*I *183:X O *D sky130_fd_sc_hd__and2_1
*CAP
1 *197:B2 0.000204965
2 *193:A 0
3 *194:A 0
4 *184:B 0
5 *185:B 0.00011626
6 *183:X 0
7 *29:35 0.000229193
8 *29:28 0.00016295
9 *29:6 0.000348726
10 *29:4 0.000371188
11 *185:B *184:A 0.000112106
12 *185:B *186:B1 0
13 *185:B *44:25 5.80706e-06
14 *197:B2 *189:A2 0
15 *197:B2 *194:B 4.33899e-05
16 *197:B2 *195:A 1.83053e-05
17 *197:B2 *197:A2 0.000100859
18 *197:B2 *197:B1 0.000161068
19 *197:B2 *197:C1 1.8461e-05
20 *29:6 *186:B1 5.49544e-05
21 *29:28 *30:8 0
22 *29:35 *194:B 9.83442e-05
23 *29:35 *195:A 3.42509e-05
24 *28:18 *197:B2 7.80151e-05
*RES
1 *183:X *29:4 9.3 
2 *29:4 *29:6 3.82143 
3 *29:6 *185:B 21.1571 
4 *29:6 *184:B 9.3 
5 *29:4 *29:28 11.25 
6 *29:28 *194:A 9.3 
7 *29:28 *29:35 0.946429 
8 *29:35 *193:A 9.3 
9 *29:35 *197:B2 23.8357 
*END

*D_NET *30 0.00201809
*CONN
*I *197:A2 I *D sky130_fd_sc_hd__a221o_1
*I *189:A1 I *D sky130_fd_sc_hd__o21ai_1
*I *190:B I *D sky130_fd_sc_hd__or3_1
*I *184:X O *D sky130_fd_sc_hd__and2_1
*CAP
1 *197:A2 0.000395066
2 *189:A1 1.9387e-05
3 *190:B 0
4 *184:X 0.000149732
5 *30:21 0.000498204
6 *30:8 0.000233483
7 *189:A1 *197:C1 3.57366e-05
8 *197:A2 *197:C1 0.000101939
9 *30:8 *189:A2 8.32242e-05
10 *30:21 *189:A2 8.00806e-05
11 *30:21 *39:12 7.79781e-06
12 *190:A *30:8 6.0038e-05
13 *190:A *30:21 9.4724e-05
14 *197:B2 *197:A2 0.000100859
15 *28:12 *197:A2 2.04026e-05
16 *28:18 *189:A1 3.57366e-05
17 *28:18 *197:A2 2.90117e-05
18 *28:18 *30:21 7.26655e-05
19 *29:28 *30:8 0
*RES
1 *184:X *30:8 16.3536 
2 *30:8 *190:B 13.8 
3 *30:8 *30:21 6.78571 
4 *30:21 *189:A1 10.0321 
5 *30:21 *197:A2 15.2688 
*END

*D_NET *31 0.00184003
*CONN
*I *188:A I *D sky130_fd_sc_hd__and3_1
*I *200:A1 I *D sky130_fd_sc_hd__a21oi_1
*I *185:Y O *D sky130_fd_sc_hd__nand2_1
*CAP
1 *188:A 0.000422337
2 *200:A1 0
3 *185:Y 0.000226112
4 *31:12 0.000648449
5 *188:A *186:A2 1.98839e-05
6 *188:A *200:B1 0.000475297
7 *188:A *33:14 1.95435e-05
8 *188:A *54:31 2.84109e-05
9 *31:12 *44:25 0
*RES
1 *185:Y *31:12 21.1036 
2 *31:12 *200:A1 9.3 
3 *31:12 *188:A 15.1929 
*END

*D_NET *32 0.00107676
*CONN
*I *188:B I *D sky130_fd_sc_hd__and3_1
*I *200:A2 I *D sky130_fd_sc_hd__a21oi_1
*I *186:X O *D sky130_fd_sc_hd__a22o_1
*CAP
1 *188:B 6.51528e-05
2 *200:A2 9.06659e-05
3 *186:X 0
4 *32:4 0.000155819
5 *188:B *201:A 4.30421e-05
6 *188:B *34:23 5.48674e-05
7 *188:B *57:30 0.000139202
8 *200:A2 *200:B1 6.7722e-05
9 *200:A2 *201:A 0.000316909
10 *200:A2 *57:30 0.000143375
*RES
1 *186:X *32:4 9.3 
2 *32:4 *200:A2 12.9875 
3 *32:4 *188:B 11.0857 
*END

*D_NET *33 0.00233331
*CONN
*I *188:C I *D sky130_fd_sc_hd__and3_1
*I *200:B1 I *D sky130_fd_sc_hd__a21oi_1
*I *187:X O *D sky130_fd_sc_hd__a32o_1
*CAP
1 *188:C 0
2 *200:B1 0.000135015
3 *187:X 0.000518796
4 *33:14 0.000653811
5 *200:B1 *186:A2 0.000218875
6 *200:B1 *201:A 9.22103e-06
7 *200:B1 *57:26 5.33334e-05
8 *200:B1 *57:30 2.12087e-05
9 *33:14 *186:A2 7.10673e-06
10 *33:14 *187:A2 2.72967e-05
11 *33:14 *34:23 9.65172e-05
12 *33:14 *45:19 0
13 *33:14 *45:45 0
14 *33:14 *54:44 2.95642e-05
15 *188:A *200:B1 0.000475297
16 *188:A *33:14 1.95435e-05
17 *200:A2 *200:B1 6.7722e-05
*RES
1 *187:X *33:14 24.9786 
2 *33:14 *200:B1 14.6929 
3 *33:14 *188:C 9.3 
*END

*D_NET *34 0.0052601
*CONN
*I *197:B1 I *D sky130_fd_sc_hd__a221o_1
*I *189:A2 I *D sky130_fd_sc_hd__o21ai_1
*I *190:C I *D sky130_fd_sc_hd__or3_1
*I *201:A I *D sky130_fd_sc_hd__nor2_1
*I *188:X O *D sky130_fd_sc_hd__and3_1
*CAP
1 *197:B1 0.000318402
2 *189:A2 8.5608e-05
3 *190:C 0
4 *201:A 0.000583055
5 *188:X 0
6 *34:29 0.000477445
7 *34:23 0.00114596
8 *34:4 0.00101878
9 *189:A2 *39:12 4.15914e-05
10 *201:A *201:B 0.000274294
11 *201:A *57:12 1.02504e-05
12 *201:A *57:26 4.88637e-05
13 *34:23 *186:B1 0
14 *34:23 *54:44 0.000173904
15 *34:23 *57:26 0
16 *34:29 *194:B 0.000225989
17 *34:29 *195:A 4.23644e-06
18 *34:29 *39:12 6.78055e-06
19 *188:B *201:A 4.30421e-05
20 *188:B *34:23 5.48674e-05
21 *197:B2 *189:A2 0
22 *197:B2 *197:B1 0.000161068
23 *200:A2 *201:A 0.000316909
24 *200:B1 *201:A 9.22103e-06
25 *30:8 *189:A2 8.32242e-05
26 *30:21 *189:A2 8.00806e-05
27 *33:14 *34:23 9.65172e-05
*RES
1 *188:X *34:4 9.3 
2 *34:4 *201:A 26.4429 
3 *34:4 *34:23 12.4464 
4 *34:23 *34:29 9.875 
5 *34:29 *190:C 9.3 
6 *34:29 *189:A2 20.7821 
7 *34:23 *197:B1 19.3 
*END

*D_NET *35 0.000676824
*CONN
*I *191:A I *D sky130_fd_sc_hd__and2_1
*I *196:A I *D sky130_fd_sc_hd__xnor2_1
*I *189:Y O *D sky130_fd_sc_hd__o21ai_1
*CAP
1 *191:A 0
2 *196:A 0.000193425
3 *189:Y 7.42401e-05
4 *35:8 0.000267665
5 *196:A *191:B 1.02504e-05
6 *196:A *196:B 9.90367e-05
7 *28:18 *35:8 3.22063e-05
*RES
1 *189:Y *35:8 10.675 
2 *35:8 *196:A 21.9071 
3 *35:8 *191:A 9.3 
*END

*D_NET *36 0.000227028
*CONN
*I *191:B I *D sky130_fd_sc_hd__and2_1
*I *190:X O *D sky130_fd_sc_hd__or3_1
*CAP
1 *191:B 8.43965e-05
2 *190:X 8.43965e-05
3 *191:B *39:12 0
4 *190:A *191:B 4.79842e-05
5 *196:A *191:B 1.02504e-05
*RES
1 *190:X *191:B 29.5464 
*END

*D_NET *37 0.00190154
*CONN
*I *193:B I *D sky130_fd_sc_hd__nor2_1
*I *194:B I *D sky130_fd_sc_hd__and2_1
*I *192:X O *D sky130_fd_sc_hd__a31o_1
*CAP
1 *193:B 0
2 *194:B 8.43516e-05
3 *192:X 0.000630148
4 *37:12 0.0007145
5 *194:B *195:A 1.71414e-05
6 *37:12 *192:A2 1.87955e-05
7 *37:12 *195:A 3.69047e-06
8 *182:A *37:12 6.5185e-05
9 *197:B2 *194:B 4.33899e-05
10 *29:35 *194:B 9.83442e-05
11 *34:29 *194:B 0.000225989
*RES
1 *192:X *37:12 28.7821 
2 *37:12 *194:B 12.3357 
3 *37:12 *193:B 9.3 
*END

*D_NET *38 0.000776754
*CONN
*I *195:A I *D sky130_fd_sc_hd__nor2_1
*I *193:Y O *D sky130_fd_sc_hd__nor2_1
*CAP
1 *195:A 0.000313668
2 *193:Y 0.000313668
3 *195:A *39:12 7.17932e-05
4 *194:B *195:A 1.71414e-05
5 *197:B2 *195:A 1.83053e-05
6 *29:35 *195:A 3.42509e-05
7 *34:29 *195:A 4.23644e-06
8 *37:12 *195:A 3.69047e-06
*RES
1 *193:Y *195:A 32.1357 
*END

*D_NET *39 0.000856254
*CONN
*I *195:B I *D sky130_fd_sc_hd__nor2_1
*I *197:C1 I *D sky130_fd_sc_hd__a221o_1
*I *194:X O *D sky130_fd_sc_hd__and2_1
*CAP
1 *195:B 0
2 *197:C1 6.97572e-05
3 *194:X 0.00016812
4 *39:12 0.000237877
5 *189:A1 *197:C1 3.57366e-05
6 *189:A2 *39:12 4.15914e-05
7 *190:A *39:12 0
8 *191:B *39:12 0
9 *195:A *39:12 7.17932e-05
10 *197:A2 *197:C1 0.000101939
11 *197:B2 *197:C1 1.8461e-05
12 *28:18 *197:C1 9.64007e-05
13 *30:21 *39:12 7.79781e-06
14 *34:29 *39:12 6.78055e-06
*RES
1 *194:X *39:12 20.7821 
2 *39:12 *197:C1 11.925 
3 *39:12 *195:B 9.3 
*END

*D_NET *40 0.000761043
*CONN
*I *196:B I *D sky130_fd_sc_hd__xnor2_1
*I *195:Y O *D sky130_fd_sc_hd__nor2_1
*CAP
1 *196:B 0.000331003
2 *195:Y 0.000331003
3 *196:A *196:B 9.90367e-05
*RES
1 *195:Y *196:B 33.3679 
*END

*D_NET *41 0.00225631
*CONN
*I *199:B I *D sky130_fd_sc_hd__xnor2_1
*I *198:C I *D sky130_fd_sc_hd__and3_1
*I *197:X O *D sky130_fd_sc_hd__a221o_1
*CAP
1 *199:B 0.000167879
2 *198:C 0
3 *197:X 0.000542683
4 *41:14 0.000710562
5 *199:B *198:A 0.000135749
6 *199:B *198:B 1.32552e-05
7 *41:14 *198:A 1.95435e-05
8 *28:12 *41:14 0.000666637
*RES
1 *197:X *41:14 26.2286 
2 *41:14 *198:C 9.3 
3 *41:14 *199:B 12.0321 
*END

*D_NET *42 0.000800458
*CONN
*I *201:B I *D sky130_fd_sc_hd__nor2_1
*I *200:Y O *D sky130_fd_sc_hd__a21oi_1
*CAP
1 *201:B 0.000105785
2 *200:Y 0.000105785
3 *201:B *203:A 5.46312e-05
4 *201:B *214:A 7.43578e-06
5 *201:B *57:26 0.000252527
6 *201:A *201:B 0.000274294
*RES
1 *200:Y *201:B 22.9929 
*END

*D_NET *43 0.000379498
*CONN
*I *202:A I *D sky130_fd_sc_hd__clkbuf_1
*I *171:X O *D sky130_fd_sc_hd__and2_1
*CAP
1 *202:A 0.000137488
2 *171:X 0.000137488
3 *202:A *45:10 6.8646e-06
4 *202:A *56:12 7.83659e-05
5 *202:A *56:19 1.92905e-05
*RES
1 *171:X *202:A 30.0821 
*END

*D_NET *44 0.00137459
*CONN
*I *184:A I *D sky130_fd_sc_hd__and2_1
*I *185:A I *D sky130_fd_sc_hd__nand2_1
*I *203:A I *D sky130_fd_sc_hd__clkbuf_1
*I *170:X O *D sky130_fd_sc_hd__and2_1
*CAP
1 *184:A 6.9919e-05
2 *185:A 0
3 *203:A 0.000260499
4 *170:X 6.61925e-05
5 *44:25 0.00014126
6 *44:6 0.000398033
7 *184:A *57:12 7.57773e-05
8 *203:A *214:A 4.78215e-05
9 *203:A *57:26 4.01768e-05
10 *44:6 *57:26 3.48705e-05
11 *44:25 *186:B1 0
12 *44:25 *57:12 6.74911e-05
13 *185:B *184:A 0.000112106
14 *185:B *44:25 5.80706e-06
15 *201:B *203:A 5.46312e-05
16 *31:12 *44:25 0
*RES
1 *170:X *44:6 10.2464 
2 *44:6 *203:A 13.8179 
3 *44:6 *44:25 6.14286 
4 *44:25 *185:A 13.8 
5 *44:25 *184:A 16.3536 
*END

*D_NET *45 0.00638799
*CONN
*I *186:B2 I *D sky130_fd_sc_hd__a22o_1
*I *170:B I *D sky130_fd_sc_hd__and2_1
*I *174:B2 I *D sky130_fd_sc_hd__a22o_1
*I *173:B I *D sky130_fd_sc_hd__and3_1
*I *171:A I *D sky130_fd_sc_hd__and2_1
*I *204:X O *D sky130_fd_sc_hd__buf_1
*CAP
1 *186:B2 1.28163e-05
2 *170:B 0.000361724
3 *174:B2 4.62153e-05
4 *173:B 2.23854e-05
5 *171:A 0
6 *204:X 0.000290712
7 *45:45 0.00129537
8 *45:23 0.00044113
9 *45:19 0.00146953
10 *45:10 0.000466878
11 *170:B *57:12 1.28585e-05
12 *174:B2 *173:A 0.000144773
13 *174:B2 *57:56 0
14 *186:B2 *186:B1 9.59532e-06
15 *45:10 *56:12 0.00048199
16 *45:19 *187:A1 0
17 *45:19 *54:16 0.000128161
18 *45:19 *54:31 0.000190155
19 *45:19 *56:12 5.80706e-06
20 *45:23 *173:A 5.64545e-05
21 *45:23 *57:30 0.000534222
22 *45:23 *57:56 8.76257e-05
23 *45:45 *54:31 5.31113e-05
24 *202:A *45:10 6.8646e-06
25 *206:A *45:10 2.89114e-05
26 *208:A *45:10 0.00014165
27 *20:12 *45:23 9.90431e-05
28 *33:14 *45:19 0
29 *33:14 *45:45 0
*RES
1 *204:X *45:10 21.5143 
2 *45:10 *171:A 13.8 
3 *45:10 *45:19 4.375 
4 *45:19 *45:23 12.8393 
5 *45:23 *173:B 9.72857 
6 *45:23 *174:B2 11.3893 
7 *45:19 *45:45 5.494 
8 *45:45 *170:B 18.0383 
9 *45:45 *186:B2 17.4868 
*END

*D_NET *46 0.000715328
*CONN
*I *212:A I *D sky130_fd_sc_hd__buf_2
*I *203:X O *D sky130_fd_sc_hd__clkbuf_1
*CAP
1 *212:A 0.000339371
2 *203:X 0.000339371
3 *212:A *214:A 3.65868e-05
4 P[1] *212:A 0
*RES
1 *203:X *212:A 32.2429 
*END

*D_NET *47 0.000920925
*CONN
*I *213:A I *D sky130_fd_sc_hd__buf_2
*I *176:X O *D sky130_fd_sc_hd__xor2_1
*CAP
1 *213:A 0.000432576
2 *176:X 0.000432576
3 *176:B *213:A 5.57727e-05
*RES
1 *176:X *213:A 35.2071 
*END

*D_NET *48 0.00112231
*CONN
*I *214:A I *D sky130_fd_sc_hd__buf_2
*I *201:Y O *D sky130_fd_sc_hd__nor2_1
*CAP
1 *214:A 0.000515233
2 *201:Y 0.000515233
3 *201:B *214:A 7.43578e-06
4 *203:A *214:A 4.78215e-05
5 *212:A *214:A 3.65868e-05
*RES
1 *201:Y *214:A 34.6 
*END

*D_NET *49 0.00074808
*CONN
*I *215:A I *D sky130_fd_sc_hd__buf_2
*I *191:X O *D sky130_fd_sc_hd__and2_1
*CAP
1 *215:A 0.00037404
2 *191:X 0.00037404
*RES
1 *191:X *215:A 24.8857 
*END

*D_NET *50 0.000216212
*CONN
*I *216:A I *D sky130_fd_sc_hd__buf_2
*I *196:Y O *D sky130_fd_sc_hd__xnor2_1
*CAP
1 *216:A 0.000108106
2 *196:Y 0.000108106
*RES
1 *196:Y *216:A 29.5464 
*END

*D_NET *51 0.000820967
*CONN
*I *217:A I *D sky130_fd_sc_hd__buf_2
*I *199:Y O *D sky130_fd_sc_hd__xnor2_1
*CAP
1 *217:A 0.000405859
2 *199:Y 0.000405859
3 *217:A *198:B 9.25014e-06
4 *217:A *218:A 0
*RES
1 *199:Y *217:A 34.4929 
*END

*D_NET *52 0.000216212
*CONN
*I *218:A I *D sky130_fd_sc_hd__buf_2
*I *198:X O *D sky130_fd_sc_hd__and3_1
*CAP
1 *218:A 0.000108106
2 *198:X 0.000108106
3 *217:A *218:A 0
*RES
1 *198:X *218:A 29.5464 
*END

*D_NET *53 0.00235516
*CONN
*I *179:B I *D sky130_fd_sc_hd__and4_1
*I *173:C I *D sky130_fd_sc_hd__and3_1
*I *180:A1 I *D sky130_fd_sc_hd__a22o_1
*I *174:A2 I *D sky130_fd_sc_hd__a22o_1
*I *205:X O *D sky130_fd_sc_hd__buf_1
*CAP
1 *179:B 0
2 *173:C 0
3 *180:A1 8.87398e-05
4 *174:A2 3.15332e-05
5 *205:X 0.00038561
6 *53:16 0.000324808
7 *53:14 0.000315399
8 *53:6 0.000496474
9 *174:A2 *173:A 9.7049e-06
10 *174:A2 *57:56 1.04232e-05
11 *180:A1 *179:A 1.02504e-05
12 *180:A1 *180:B1 0.00015235
13 *180:A1 *57:34 0.000127446
14 *180:A1 *58:12 6.19181e-05
15 *53:6 *179:C 2.89114e-05
16 *53:6 *180:B1 1.74352e-05
17 *53:14 *173:A 5.14325e-05
18 *53:14 *58:12 0
19 *53:16 *173:A 0.000225292
20 *53:16 *57:56 1.74352e-05
*RES
1 *205:X *53:6 13.9429 
2 *53:6 *53:14 10.6429 
3 *53:14 *53:16 2.92857 
4 *53:16 *174:A2 10.0321 
5 *53:16 *180:A1 20.8893 
6 *53:14 *173:C 9.3 
7 *53:6 *179:B 9.3 
*END

*D_NET *54 0.00595539
*CONN
*I *172:B I *D sky130_fd_sc_hd__nand2_1
*I *192:A2 I *D sky130_fd_sc_hd__a31o_1
*I *177:B I *D sky130_fd_sc_hd__nand2_1
*I *183:A I *D sky130_fd_sc_hd__and2_1
*I *186:A2 I *D sky130_fd_sc_hd__a22o_1
*I *187:A2 I *D sky130_fd_sc_hd__a32o_1
*I *206:X O *D sky130_fd_sc_hd__dlymetal6s2s_1
*CAP
1 *172:B 0.000197784
2 *192:A2 0.000145484
3 *177:B 0
4 *183:A 4.38133e-05
5 *186:A2 5.55025e-05
6 *187:A2 0.000124191
7 *206:X 0.000358245
8 *54:55 0.000402514
9 *54:44 0.000521709
10 *54:31 0.00053221
11 *54:16 0.000449333
12 *54:12 0.000625328
13 *172:B *56:19 0.000228558
14 *183:A *59:34 5.03772e-05
15 *186:A2 *57:30 0.0002685
16 *192:A2 *177:A 0.000227532
17 *192:A2 *58:12 3.34295e-05
18 *192:A2 *59:10 6.8646e-06
19 *192:A2 *59:34 2.24763e-05
20 *54:16 *187:A1 0
21 *54:31 *57:30 0.000299556
22 *54:55 *59:34 0.000217337
23 *176:A *172:B 3.18676e-05
24 *182:A *192:A2 0.000185643
25 *187:A3 *187:A2 3.18676e-05
26 *188:A *186:A2 1.98839e-05
27 *188:A *54:31 2.84109e-05
28 *200:B1 *186:A2 0.000218875
29 *21:10 *54:31 0
30 *33:14 *186:A2 7.10673e-06
31 *33:14 *187:A2 2.72967e-05
32 *33:14 *54:44 2.95642e-05
33 *34:23 *54:44 0.000173904
34 *37:12 *192:A2 1.87955e-05
35 *45:19 *54:16 0.000128161
36 *45:19 *54:31 0.000190155
37 *45:45 *54:31 5.31113e-05
*RES
1 *206:X *54:12 23.7464 
2 *54:12 *54:16 6.14286 
3 *54:16 *187:A2 15.9786 
4 *54:16 *54:31 10.6607 
5 *54:31 *186:A2 11.8893 
6 *54:31 *54:44 13.6786 
7 *54:44 *183:A 10.2464 
8 *54:44 *54:55 5.89286 
9 *54:55 *177:B 9.3 
10 *54:55 *192:A2 22.4607 
11 *54:12 *172:B 13.1393 
*END

*D_NET *55 0.00402622
*CONN
*I *180:B1 I *D sky130_fd_sc_hd__a22o_1
*I *179:D I *D sky130_fd_sc_hd__and4_1
*I *178:B I *D sky130_fd_sc_hd__nand2_1
*I *198:B I *D sky130_fd_sc_hd__and3_1
*I *207:X O *D sky130_fd_sc_hd__buf_1
*CAP
1 *180:B1 0.000282672
2 *179:D 0
3 *178:B 0
4 *198:B 0.000369467
5 *207:X 0.000266189
6 *55:38 0.000732928
7 *55:10 0.000452137
8 *55:8 0.000799114
9 *180:B1 *179:A 0.000312222
10 *180:B1 *179:C 0.000230482
11 *180:B1 *180:A2 5.52238e-05
12 *198:B *198:A 8.00587e-05
13 *198:B *59:60 4.46186e-06
14 *55:38 *59:10 0
15 *55:38 *59:14 0
16 *55:38 *59:60 0
17 *180:A1 *180:B1 0.00015235
18 *182:B *55:38 0
19 *199:A *198:B 0.000181487
20 *199:B *198:B 1.32552e-05
21 *217:A *198:B 9.25014e-06
22 *25:12 *55:38 6.74911e-05
23 *26:10 *55:38 0
24 *53:6 *180:B1 1.74352e-05
*RES
1 *207:X *55:8 13.8536 
2 *55:8 *55:10 1.35714 
3 *55:10 *198:B 25.5321 
4 *55:10 *178:B 9.3 
5 *55:8 *55:38 16.7143 
6 *55:38 *179:D 9.3 
7 *55:38 *180:B1 16.8714 
*END

*D_NET *56 0.00203966
*CONN
*I *172:A I *D sky130_fd_sc_hd__nand2_1
*I *187:A1 I *D sky130_fd_sc_hd__a32o_1
*I *171:B I *D sky130_fd_sc_hd__and2_1
*I *208:X O *D sky130_fd_sc_hd__buf_1
*CAP
1 *172:A 0
2 *187:A1 0.000133522
3 *171:B 0
4 *208:X 0.000401022
5 *56:19 0.000211802
6 *56:12 0.000479301
7 *172:B *56:19 0.000228558
8 *176:B *187:A1 0
9 *202:A *56:12 7.83659e-05
10 *202:A *56:19 1.92905e-05
11 *45:10 *56:12 0.00048199
12 *45:19 *187:A1 0
13 *45:19 *56:12 5.80706e-06
14 *54:16 *187:A1 0
*RES
1 *208:X *56:12 24.8893 
2 *56:12 *171:B 9.3 
3 *56:12 *56:19 2.17857 
4 *56:19 *187:A1 20.2464 
5 *56:19 *172:A 9.3 
*END

*D_NET *57 0.00699968
*CONN
*I *170:A I *D sky130_fd_sc_hd__and2_1
*I *186:A1 I *D sky130_fd_sc_hd__a22o_1
*I *173:A I *D sky130_fd_sc_hd__and3_1
*I *174:A1 I *D sky130_fd_sc_hd__a22o_1
*I *179:A I *D sky130_fd_sc_hd__and4_1
*I *180:B2 I *D sky130_fd_sc_hd__a22o_1
*I *209:X O *D sky130_fd_sc_hd__buf_1
*CAP
1 *170:A 0
2 *186:A1 0
3 *173:A 0.000102058
4 *174:A1 0
5 *179:A 0.000200624
6 *180:B2 0
7 *209:X 0.000756401
8 *57:56 0.00014416
9 *57:34 0.000342784
10 *57:30 0.000547627
11 *57:26 0.000702813
12 *57:12 0.00109585
13 *179:A *58:12 1.46624e-05
14 *57:26 *186:B1 9.54798e-06
15 *57:34 *58:12 5.90443e-06
16 *57:34 *58:16 2.19778e-05
17 *170:B *57:12 1.28585e-05
18 *174:A2 *173:A 9.7049e-06
19 *174:A2 *57:56 1.04232e-05
20 *174:B2 *173:A 0.000144773
21 *174:B2 *57:56 0
22 *180:A1 *179:A 1.02504e-05
23 *180:A1 *57:34 0.000127446
24 *180:B1 *179:A 0.000312222
25 *184:A *57:12 7.57773e-05
26 *186:A2 *57:30 0.0002685
27 *188:B *57:30 0.000139202
28 *200:A2 *57:30 0.000143375
29 *200:B1 *57:26 5.33334e-05
30 *200:B1 *57:30 2.12087e-05
31 *201:A *57:12 1.02504e-05
32 *201:A *57:26 4.88637e-05
33 *201:B *57:26 0.000252527
34 *203:A *57:26 4.01768e-05
35 *34:23 *57:26 0
36 *44:6 *57:26 3.48705e-05
37 *44:25 *57:12 6.74911e-05
38 *45:23 *173:A 5.64545e-05
39 *45:23 *57:30 0.000534222
40 *45:23 *57:56 8.76257e-05
41 *53:14 *173:A 5.14325e-05
42 *53:16 *173:A 0.000225292
43 *53:16 *57:56 1.74352e-05
44 *54:31 *57:30 0.000299556
*RES
1 *209:X *57:12 29.0679 
2 *57:12 *57:26 15.4643 
3 *57:26 *57:30 10.8214 
4 *57:30 *57:34 7.05357 
5 *57:34 *180:B2 13.8 
6 *57:34 *179:A 17.5321 
7 *57:30 *57:56 1.375 
8 *57:56 *174:A1 9.3 
9 *57:56 *173:A 13.2643 
10 *57:26 *186:A1 9.3 
11 *57:12 *170:A 9.3 
*END

*D_NET *58 0.00328158
*CONN
*I *192:A1 I *D sky130_fd_sc_hd__a31o_1
*I *177:A I *D sky130_fd_sc_hd__nand2_1
*I *174:B1 I *D sky130_fd_sc_hd__a22o_1
*I *175:A1 I *D sky130_fd_sc_hd__a21bo_1
*I *187:B2 I *D sky130_fd_sc_hd__a32o_1
*I *210:X O *D sky130_fd_sc_hd__buf_1
*CAP
1 *192:A1 0
2 *177:A 6.49818e-05
3 *174:B1 0
4 *175:A1 0
5 *187:B2 7.60853e-05
6 *210:X 0.000394121
7 *58:16 0.000226215
8 *58:12 0.000365657
9 *58:8 0.000674631
10 *177:A *59:34 6.97409e-05
11 *58:12 *59:10 3.57844e-05
12 *58:12 *59:14 7.2754e-05
13 *179:A *58:12 1.46624e-05
14 *180:A1 *58:12 6.19181e-05
15 *187:A3 *187:B2 5.71472e-05
16 *187:B1 *187:B2 0.000268135
17 *192:A2 *177:A 0.000227532
18 *192:A2 *58:12 3.34295e-05
19 *192:A3 *177:A 5.33334e-05
20 *192:A3 *58:8 1.5424e-05
21 *192:B1 *58:8 0.000315158
22 *20:12 *58:16 0.000129868
23 *21:10 *58:16 0
24 *25:12 *58:8 9.71197e-05
25 *53:14 *58:12 0
26 *57:34 *58:12 5.90443e-06
27 *57:34 *58:16 2.19778e-05
*RES
1 *210:X *58:8 17.1393 
2 *58:8 *58:12 9.17857 
3 *58:12 *58:16 7.35714 
4 *58:16 *187:B2 11.9071 
5 *58:16 *175:A1 9.3 
6 *58:12 *174:B1 13.8 
7 *58:8 *177:A 11.8893 
8 *58:8 *192:A1 9.3 
*END

*D_NET *59 0.00656026
*CONN
*I *198:A I *D sky130_fd_sc_hd__and3_1
*I *178:A I *D sky130_fd_sc_hd__nand2_1
*I *183:B I *D sky130_fd_sc_hd__and2_1
*I *186:B1 I *D sky130_fd_sc_hd__a22o_1
*I *179:C I *D sky130_fd_sc_hd__and4_1
*I *180:A2 I *D sky130_fd_sc_hd__a22o_1
*I *211:X O *D sky130_fd_sc_hd__dlymetal6s2s_1
*CAP
1 *198:A 0.000278691
2 *178:A 3.72704e-05
3 *183:B 2.22847e-05
4 *186:B1 0.000392845
5 *179:C 7.28752e-05
6 *180:A2 2.26968e-05
7 *211:X 0.00035928
8 *59:60 0.000467665
9 *59:34 0.00127302
10 *59:14 0.000178985
11 *59:10 0.00107861
12 *59:8 0.000648295
13 *177:A *59:34 6.97409e-05
14 *180:B1 *179:C 0.000230482
15 *180:B1 *180:A2 5.52238e-05
16 *182:A *59:10 0
17 *182:B *59:8 5.33005e-05
18 *182:B *59:10 0.000128154
19 *182:B *59:60 3.17148e-05
20 *183:A *59:34 5.03772e-05
21 *185:B *186:B1 0
22 *186:B2 *186:B1 9.59532e-06
23 *192:A2 *59:10 6.8646e-06
24 *192:A2 *59:34 2.24763e-05