*SPEF "ieee 1481-1999"
*DESIGN "mult4_SARSANPASOS_VENTAJA_RUIDO_e8_SARSA_RUIDO_e9_SARSA_RUIDO_e9_SARSA_RUIDO_e9"
*DATE "14:21:58 Tuesday September 16, 2025"
*VENDOR "The OpenROAD Project"
*PROGRAM "OpenROAD"
*VERSION "edf00dff99f6c40d67a30c0e22a8191c5d2ed9d6"
*DESIGN_FLOW "NAME_SCOPE LOCAL" "PIN_CAP NONE"
*DIVIDER /
*DELIMITER :
*BUS_DELIMITER []
*T_UNIT 1 NS
*C_UNIT 1 PF
*R_UNIT 1 OHM
*L_UNIT 1 HENRY

*NAME_MAP
*1 A[0]
*2 A[1]
*3 A[2]
*4 A[3]
*5 B[0]
*6 B[1]
*7 B[2]
*8 B[3]
*9 P[0]
*10 P[1]
*11 P[2]
*12 P[3]
*13 P[4]
*14 P[5]
*15 P[6]
*16 P[7]
*19 _00_
*20 _01_
*21 _02_
*22 _03_
*23 _04_
*24 _05_
*25 _06_
*26 _07_
*27 _08_
*28 _09_
*29 _10_
*30 _11_
*31 _12_
*32 _13_
*33 _14_
*34 _15_
*35 _16_
*36 _17_
*37 _18_
*38 _19_
*39 _20_
*40 _21_
*41 _22_
*42 _23_
*43 _24_
*44 _25_
*45 mul_ll\.pp1
*46 net1
*47 net10
*48 net11
*49 net12
*50 net13
*51 net14
*52 net15
*53 net16
*54 net2
*55 net3
*56 net4
*57 net5
*58 net6
*59 net7
*60 net8
*61 net9
*62 FILLER_0_15
*63 FILLER_0_20
*64 FILLER_0_3
*65 FILLER_0_36
*66 FILLER_0_42
*67 FILLER_0_48
*68 FILLER_0_57
*69 FILLER_0_69
*70 FILLER_1_15
*71 FILLER_1_3
*72 FILLER_1_44
*73 FILLER_1_62
*74 FILLER_1_74
*75 FILLER_1_80
*76 FILLER_2_18
*77 FILLER_2_22
*78 FILLER_2_26
*79 FILLER_2_37
*80 FILLER_2_6
*81 FILLER_2_75
*82 FILLER_3_23
*83 FILLER_3_3
*84 FILLER_3_35
*85 FILLER_3_47
*86 FILLER_3_55
*87 FILLER_3_57
*88 FILLER_3_64
*89 FILLER_3_76
*90 FILLER_3_80
*91 FILLER_4_13
*92 FILLER_4_21
*93 FILLER_4_47
*94 FILLER_4_59
*95 FILLER_4_71
*96 FILLER_5_19
*97 FILLER_5_31
*98 FILLER_5_43
*99 FILLER_5_55
*100 FILLER_5_7
*101 FILLER_5_73
*102 FILLER_6_20
*103 FILLER_6_43
*104 FILLER_6_55
*105 FILLER_6_6
*106 FILLER_6_67
*107 FILLER_6_79
*108 FILLER_7_15
*109 FILLER_7_27
*110 FILLER_7_40
*111 FILLER_7_46
*112 FILLER_7_54
*113 FILLER_7_64
*114 FILLER_7_7
*115 FILLER_7_76
*116 FILLER_8_15
*117 FILLER_8_27
*118 FILLER_8_29
*119 FILLER_8_3
*120 FILLER_8_41
*121 FILLER_8_53
*122 FILLER_8_65
*123 FILLER_8_77
*124 FILLER_9_19
*125 FILLER_9_27
*126 FILLER_9_29
*127 FILLER_9_41
*128 FILLER_9_53
*129 FILLER_9_57
*130 FILLER_9_69
*131 FILLER_9_7
*132 PHY_EDGE_ROW_0_Left_10
*133 PHY_EDGE_ROW_0_Right_0
*134 PHY_EDGE_ROW_1_Left_11
*135 PHY_EDGE_ROW_1_Right_1
*136 PHY_EDGE_ROW_2_Left_12
*137 PHY_EDGE_ROW_2_Right_2
*138 PHY_EDGE_ROW_3_Left_13
*139 PHY_EDGE_ROW_3_Right_3
*140 PHY_EDGE_ROW_4_Left_14
*141 PHY_EDGE_ROW_4_Right_4
*142 PHY_EDGE_ROW_5_Left_15
*143 PHY_EDGE_ROW_5_Right_5
*144 PHY_EDGE_ROW_6_Left_16
*145 PHY_EDGE_ROW_6_Right_6
*146 PHY_EDGE_ROW_7_Left_17
*147 PHY_EDGE_ROW_7_Right_7
*148 PHY_EDGE_ROW_8_Left_18
*149 PHY_EDGE_ROW_8_Right_8
*150 PHY_EDGE_ROW_9_Left_19
*151 PHY_EDGE_ROW_9_Right_9
*152 TAP_TAPCELL_ROW_0_20
*153 TAP_TAPCELL_ROW_0_21
*154 TAP_TAPCELL_ROW_1_22
*155 TAP_TAPCELL_ROW_2_23
*156 TAP_TAPCELL_ROW_3_24
*157 TAP_TAPCELL_ROW_4_25
*158 TAP_TAPCELL_ROW_5_26
*159 TAP_TAPCELL_ROW_6_27
*160 TAP_TAPCELL_ROW_7_28
*161 TAP_TAPCELL_ROW_8_29
*162 TAP_TAPCELL_ROW_9_30
*163 TAP_TAPCELL_ROW_9_31
*164 _26_
*165 _27_
*166 _28_
*167 _29_
*168 _30_
*169 _31_
*170 _32_
*171 _33_
*172 _34_
*173 _35_
*174 _36_
*175 _37_
*176 _38_
*177 _39_
*178 _40_
*179 _41_
*180 _42_
*181 _43_
*182 _44_
*183 _45_
*184 _46_
*185 _47_
*186 _48_
*187 _49_
*188 _50_
*189 _51_
*190 _52_
*191 _53_
*192 _54_
*193 _55_
*194 _56_
*195 _57_
*196 _58_
*197 _59_
*198 _60_
*199 input1
*200 input2
*201 input3
*202 input4
*203 input5
*204 input6
*205 input7
*206 input8
*207 output10
*208 output11
*209 output12
*210 output13
*211 output14
*212 output15
*213 output16
*214 output9

*PORTS
A[0] I
A[1] I
A[2] I
A[3] I
B[0] I
B[1] I
B[2] I
B[3] I
P[0] O
P[1] O
P[2] O
P[3] O
P[4] O
P[5] O
P[6] O
P[7] O

*D_NET *1 0.000875084
*CONN
*P A[0] I
*I *199:A I *D sky130_fd_sc_hd__buf_1
*CAP
1 A[0] 0.000437542
2 *199:A 0.000437542
3 *199:A P[0] 0
4 *199:A *201:A 0
5 *199:A *58:55 0
*RES
1 A[0] *199:A 47.4664 
*END

*D_NET *2 0.000666589
*CONN
*P A[1] I
*I *200:A I *D sky130_fd_sc_hd__buf_1
*CAP
1 A[1] 0.000320228
2 *200:A 0
3 *2:17 0.000320228
4 *2:17 *6:17 2.61329e-05
*RES
1 A[1] *2:17 27.1584 
2 *2:17 *200:A 23 
*END

*D_NET *3 0.000925164
*CONN
*P A[2] I
*I *201:A I *D sky130_fd_sc_hd__clkbuf_2
*CAP
1 A[2] 0.000462582
2 *201:A 0.000462582
3 *199:A *201:A 0
*RES
1 A[2] *201:A 47.4457 
*END

*D_NET *4 0.000568138
*CONN
*P A[3] I
*I *202:A I *D sky130_fd_sc_hd__buf_1
*CAP
1 A[3] 0.000254489
2 *202:A 0.000254489
3 *202:A P[6] 0
4 *202:A P[7] 1.5289e-05
5 *202:A *8:17 2.79122e-05
6 *202:A *16:14 1.59585e-05
*RES
1 A[3] *202:A 47.7832 
*END

*D_NET *5 0.000901682
*CONN
*P B[0] I
*I *203:A I *D sky130_fd_sc_hd__buf_1
*CAP
1 B[0] 0.000450841
2 *203:A 0.000450841
3 *203:A *205:A 0
4 *203:A *58:36 0
*RES
1 B[0] *203:A 47.3214 
*END

*D_NET *6 0.000747356
*CONN
*P B[1] I
*I *204:A I *D sky130_fd_sc_hd__dlymetal6s2s_1
*CAP
1 B[1] 0.000346167
2 *204:A 0
3 *6:17 0.000346167
4 *6:17 *8:17 2.88889e-05
5 *2:17 *6:17 2.61329e-05
*RES
1 B[1] *6:17 28.2148 
2 *6:17 *204:A 23 
*END

*D_NET *7 0.00104605
*CONN
*P B[2] I
*I *205:A I *D sky130_fd_sc_hd__buf_1
*CAP
1 B[2] 0.000467693
2 *205:A 0.000467693
3 *205:A P[2] 0
4 *205:A *48:10 1.01436e-05
5 *205:A *58:36 8.80821e-05
6 *205:A *59:8 1.24376e-05
7 *203:A *205:A 0
*RES
1 B[2] *205:A 47.7979 
*END

*D_NET *8 0.000768284
*CONN
*P B[3] I
*I *206:A I *D sky130_fd_sc_hd__clkbuf_2
*CAP
1 B[3] 0.000355741
2 *206:A 0
3 *8:17 0.000355741
4 *202:A *8:17 2.79122e-05
5 *6:17 *8:17 2.88889e-05
*RES
1 B[3] *8:17 28.3391 
2 *8:17 *206:A 23 
*END

*D_NET *9 0.00106551
*CONN
*P P[0] O
*I *214:X O *D sky130_fd_sc_hd__buf_2
*CAP
1 P[0] 0.000477668
2 *214:X 0.000477668
3 P[0] P[2] 0
4 P[0] *167:B2 1.16862e-05
5 P[0] *58:55 9.84851e-05
6 *199:A P[0] 0
*RES
1 *214:X P[0] 47.57 
*END

*D_NET *10 0.000533975
*CONN
*P P[1] O
*I *207:X O *D sky130_fd_sc_hd__buf_2
*CAP
1 P[1] 0.000223299
2 *207:X 0.000223299
3 P[1] P[3] 8.73764e-05
4 P[1] *45:40 0
*RES
1 *207:X P[1] 47.5169 
*END

*D_NET *11 0.00131125
*CONN
*P P[2] O
*I *208:X O *D sky130_fd_sc_hd__buf_2
*CAP
1 P[2] 0.000532087
2 *208:X 0.000532087
3 P[2] *167:A2 6.16439e-05
4 P[2] *48:10 0
5 P[2] *58:55 0
6 P[2] *59:8 0.000185428
7 P[0] P[2] 0
8 *205:A P[2] 0
*RES
1 *208:X P[2] 49.455 
*END

*D_NET *12 0.000687039
*CONN
*P P[3] O
*I *209:X O *D sky130_fd_sc_hd__buf_2
*CAP
1 P[3] 0.000267094
2 *209:X 0.000267094
3 P[3] *49:10 6.54744e-05
4 P[1] P[3] 8.73764e-05
*RES
1 *209:X P[3] 48.5734 
*END

*D_NET *13 0.000505761
*CONN
*P P[4] O
*I *210:X O *D sky130_fd_sc_hd__buf_2
*CAP
1 P[4] 0.000202465
2 *210:X 0.000202465
3 P[4] P[5] 8.73764e-05
4 P[4] *50:10 1.34542e-05
*RES
1 *210:X P[4] 47.1648 
*END

*D_NET *14 0.000687039
*CONN
*P P[5] O
*I *211:X O *D sky130_fd_sc_hd__buf_2
*CAP
1 P[5] 0.000267094
2 *211:X 0.000267094
3 P[5] *51:10 6.54744e-05
4 P[4] P[5] 8.73764e-05
*RES
1 *211:X P[5] 48.5734 
*END

*D_NET *15 0.000714327
*CONN
*P P[6] O
*I *212:X O *D sky130_fd_sc_hd__buf_2
*CAP
1 P[6] 0.000315709
2 *212:X 0.000315709
3 P[6] P[7] 2.12457e-05
4 P[6] *52:10 6.16635e-05
5 *202:A P[6] 0
*RES
1 *212:X P[6] 48.5734 
*END

*D_NET *16 0.000762608
*CONN
*P P[7] O
*I *213:X O *D sky130_fd_sc_hd__buf_2
*CAP
1 P[7] 7.65184e-05
2 *213:X 0.000278539
3 *16:14 0.000355058
4 P[6] P[7] 2.12457e-05
5 *202:A P[7] 1.5289e-05
6 *202:A *16:14 1.59585e-05
*RES
1 *213:X *16:14 49.9 
2 *16:14 P[7] 0.382667 
*END

*D_NET *19 0.000782682
*CONN
*I *169:A I *D sky130_fd_sc_hd__xor2_1
*I *165:Y O *D sky130_fd_sc_hd__nand2_1
*CAP
1 *169:A 0
2 *165:Y 0.000266778
3 *19:10 0.000266778
4 *19:10 *54:10 8.06804e-06
5 *19:10 *57:8 0.000141869
6 *19:10 *57:12 9.91895e-05
*RES
1 *165:Y *19:10 42.4329 
2 *19:10 *169:A 38 
*END

*D_NET *20 0.00126582
*CONN
*I *181:B1 I *D sky130_fd_sc_hd__a32o_1
*I *168:A2 I *D sky130_fd_sc_hd__a21bo_1
*I *166:X O *D sky130_fd_sc_hd__and3_1
*CAP
1 *181:B1 2.57427e-05
2 *168:A2 0.000259851
3 *166:X 0.000169618
4 *20:8 0.000455212
5 *168:A2 *168:A1 9.59185e-05
6 *168:A2 *168:B1_N 5.3304e-05
7 *168:A2 *181:A3 1.93876e-05
8 *181:B1 *181:A3 2.88529e-05
9 *20:8 *166:C 6.36094e-05
10 *20:8 *181:A3 7.40718e-05
11 *20:8 *58:64 2.02517e-05
*RES
1 *166:X *20:8 26.5007 
2 *20:8 *168:A2 27.9507 
3 *20:8 *181:B1 23.7768 
*END

*D_NET *21 0.00133863
*CONN
*I *181:A3 I *D sky130_fd_sc_hd__a32o_1
*I *168:B1_N I *D sky130_fd_sc_hd__a21bo_1
*I *167:X O *D sky130_fd_sc_hd__a22o_1
*CAP
1 *181:A3 0.000168673
2 *168:B1_N 2.32701e-05
3 *167:X 9.19257e-05
4 *21:8 0.000283869
5 *168:B1_N *168:A1 5.3304e-05
6 *181:A3 *166:C 0.000277381
7 *181:A3 *167:A2 5.94125e-05
8 *181:A3 *168:A1 9.41704e-05
9 *181:A3 *58:36 0
10 *21:8 *167:A2 0.00011101
11 *21:8 *48:10 0
12 *21:8 *58:36 0
13 *168:A2 *168:B1_N 5.3304e-05
14 *168:A2 *181:A3 1.93876e-05
15 *181:B1 *181:A3 2.88529e-05
16 *20:8 *181:A3 7.40718e-05
*RES
1 *167:X *21:8 39.9057 
2 *21:8 *168:B1_N 38.6214 
3 *21:8 *181:A3 42.8264 
*END

*D_NET *22 0.000272678
*CONN
*I *169:B I *D sky130_fd_sc_hd__xor2_1
*I *168:X O *D sky130_fd_sc_hd__a21bo_1
*CAP
1 *169:B 0.000121647
2 *168:X 0.000121647
3 *169:B *48:10 2.93845e-05
*RES
1 *168:X *169:B 48.0507 
*END

*D_NET *23 0.000795413
*CONN
*I *194:A I *D sky130_fd_sc_hd__xnor2_1
*I *170:Y O *D sky130_fd_sc_hd__nand2_1
*CAP
1 *194:A 0.000136356
2 *170:Y 9.76969e-05
3 *23:8 0.000234053
4 *194:A *43:21 0.000185428
5 *23:8 *43:21 0.000141879
*RES
1 *170:Y *23:8 40.2579 
2 *23:8 *194:A 41.0036 
*END

*D_NET *24 0.00172618
*CONN
*I *174:A1 I *D sky130_fd_sc_hd__a21oi_1
*I *186:B1_N I *D sky130_fd_sc_hd__a21boi_1
*I *175:A I *D sky130_fd_sc_hd__and3_1
*I *171:Y O *D sky130_fd_sc_hd__nand4_1
*CAP
1 *174:A1 0
2 *186:B1_N 0
3 *175:A 0.000112481
4 *171:Y 0.000176727
5 *24:22 0.000303965
6 *24:12 0.000191483
7 *24:10 0.000176727
8 *175:A *175:C 4.44329e-05
9 *175:A *186:A1 5.56356e-05
10 *175:A *25:27 0.000139346
11 *175:A *26:27 0.000183502
12 *175:A *27:8 1.72202e-05
13 *24:10 *25:10 0.00010542
14 *24:10 *25:27 1.01436e-05
15 *24:10 *26:10 3.3746e-05
16 *24:10 *58:28 3.7122e-06
17 *24:22 *25:27 7.31551e-05
18 *24:22 *27:8 9.84851e-05
*RES
1 *171:Y *24:10 40.7757 
2 *24:10 *24:12 15 
3 *24:12 *24:22 4.28786 
4 *24:22 *175:A 26.5007 
5 *24:22 *186:B1_N 23 
6 *24:12 *174:A1 23 
*END

*D_NET *25 0.00301258
*CONN
*I *186:A1 I *D sky130_fd_sc_hd__a21boi_1
*I *175:B I *D sky130_fd_sc_hd__and3_1
*I *174:A2 I *D sky130_fd_sc_hd__a21oi_1
*I *172:X O *D sky130_fd_sc_hd__a22o_1
*CAP
1 *186:A1 3.30489e-05
2 *175:B 0
3 *174:A2 9.16262e-06
4 *172:X 0.000338643
5 *25:35 0.000261005
6 *25:27 0.000602085
7 *25:10 0.000655836
8 *174:A2 *26:27 0
9 *174:A2 *60:12 0
10 *25:10 *171:D 5.50049e-05
11 *25:10 *172:A1 1.03955e-05
12 *25:10 *26:10 3.74442e-05
13 *25:10 *54:16 0
14 *25:10 *58:24 5.50049e-05
15 *25:10 *58:28 0.000139352
16 *25:10 *58:36 1.58805e-05
17 *25:10 *60:12 0
18 *25:27 *26:10 3.47781e-05
19 *25:27 *26:27 1.23172e-05
20 *25:35 *38:10 0.000233367
21 *25:35 *55:54 0.000135557
22 *175:A *186:A1 5.56356e-05
23 *175:A *25:27 0.000139346
24 *24:10 *25:10 0.00010542
25 *24:10 *25:27 1.01436e-05
26 *24:22 *25:27 7.31551e-05
*RES
1 *172:X *25:10 44.6182 
2 *25:10 *174:A2 38.3211 
3 *25:10 *25:27 19.7746 
4 *25:27 *25:35 34.4329 
5 *25:35 *175:B 23 
6 *25:27 *186:A1 23.6214 
*END

*D_NET *26 0.00192441
*CONN
*I *175:C I *D sky130_fd_sc_hd__and3_1
*I *186:A2 I *D sky130_fd_sc_hd__a21boi_1
*I *174:B1 I *D sky130_fd_sc_hd__a21oi_1
*I *173:X O *D sky130_fd_sc_hd__and2_1
*CAP
1 *175:C 7.84856e-05
2 *186:A2 0
3 *174:B1 0
4 *173:X 0.000287566
5 *26:27 0.000283619
6 *26:10 0.0004927
7 *175:C *27:8 0.000131373
8 *26:10 *54:36 0.00010018
9 *26:10 *55:54 0
10 *26:10 *58:36 0
11 *26:27 *27:8 0.000181801
12 *26:27 *55:54 2.24608e-05
13 *174:A2 *26:27 0
14 *175:A *175:C 4.44329e-05
15 *175:A *26:27 0.000183502
16 *24:10 *26:10 3.3746e-05
17 *25:10 *26:10 3.74442e-05
18 *25:27 *26:10 3.47781e-05
19 *25:27 *26:27 1.23172e-05
*RES
1 *173:X *26:10 43.4686 
2 *26:10 *174:B1 38 
3 *26:10 *26:27 19.2671 
4 *26:27 *186:A2 23 
5 *26:27 *175:C 25.2993 
*END

*D_NET *27 0.00184016
*CONN
*I *184:A I *D sky130_fd_sc_hd__nor3_1
*I *176:A I *D sky130_fd_sc_hd__nor2_1
*I *174:Y O *D sky130_fd_sc_hd__a21oi_1
*CAP
1 *184:A 0
2 *176:A 0.000269958
3 *174:Y 0.000209744
4 *27:8 0.000479702
5 *176:A *176:B 5.67115e-05
6 *176:A *28:6 1.97971e-05
7 *27:8 *28:6 5.73309e-05
8 *27:8 *38:10 0.000318039
9 *175:A *27:8 1.72202e-05
10 *175:C *27:8 0.000131373
11 *24:22 *27:8 9.84851e-05
12 *26:27 *27:8 0.000181801
*RES
1 *174:Y *27:8 29.8357 
2 *27:8 *176:A 28.5204 
3 *27:8 *184:A 23 
*END

*D_NET *28 0.000588981
*CONN
*I *176:B I *D sky130_fd_sc_hd__nor2_1
*I *184:B I *D sky130_fd_sc_hd__nor3_1
*I *175:X O *D sky130_fd_sc_hd__and3_1
*CAP
1 *176:B 0.000146397
2 *184:B 0
3 *175:X 7.45585e-05
4 *28:6 0.000220955
5 *176:B *29:10 1.32314e-05
6 *176:A *176:B 5.67115e-05
7 *176:A *28:6 1.97971e-05
8 *27:8 *28:6 5.73309e-05
*RES
1 *175:X *28:6 24.5743 
2 *28:6 *184:B 23 
3 *28:6 *176:B 25.9 
*END

*D_NET *29 0.00189678
*CONN
*I *190:B1 I *D sky130_fd_sc_hd__o21a_1
*I *185:A I *D sky130_fd_sc_hd__xnor2_1
*I *176:Y O *D sky130_fd_sc_hd__nor2_1
*CAP
1 *190:B1 2.61771e-05
2 *185:A 0.000160074
3 *176:Y 0.000566633
4 *29:10 0.000752883
5 *185:A *183:A 5.36764e-05
6 *185:A *183:B 0.000182832
7 *185:A *190:A1 5.50049e-05
8 *190:B1 *35:29 3.3123e-05
9 *190:B1 *60:85 0
10 *29:10 *35:12 4.08641e-05
11 *29:10 *35:29 1.22803e-05
12 *29:10 *60:85 0
13 *176:B *29:10 1.32314e-05
*RES
1 *176:Y *29:10 45.8921 
2 *29:10 *185:A 41.8529 
3 *29:10 *190:B1 38.8493 
*END

*D_NET *30 0.00113123
*CONN
*I *187:A I *D sky130_fd_sc_hd__and2_1
*I *188:A I *D sky130_fd_sc_hd__nor2_1
*I *177:Y O *D sky130_fd_sc_hd__nand2_1
*CAP
1 *187:A 0.000240779
2 *188:A 0
3 *177:Y 8.45671e-05
4 *30:10 0.000325346
5 *187:A *187:B 0.000258138
6 *187:A *189:A 6.17437e-06
7 *187:A *40:25 6.79006e-05
8 *187:A *55:75 4.82477e-05
9 *30:10 *187:B 1.05441e-05
10 *30:10 *35:44 1.23353e-05
11 *30:10 *38:10 6.3303e-05
12 *30:10 *55:75 1.05441e-05
13 *30:10 *60:74 3.34818e-06
*RES
1 *177:Y *30:10 39.4707 
2 *30:10 *188:A 38 
3 *30:10 *187:A 43.0129 
*END

*D_NET *31 0.00132014
*CONN
*I *183:A I *D sky130_fd_sc_hd__nor2_1
*I *190:A1 I *D sky130_fd_sc_hd__o21a_1
*I *178:X O *D sky130_fd_sc_hd__and3_1
*CAP
1 *183:A 0.000181692
2 *190:A1 2.39561e-05
3 *178:X 0.000230299
4 *31:10 0.000205648
5 *31:8 0.000230299
6 *183:A *183:B 1.51547e-05
7 *183:A *185:B 0.00010655
8 *183:A *50:10 5.67058e-05
9 *31:8 *35:12 0.000131543
10 *31:8 *35:29 2.96154e-05
11 *185:A *183:A 5.36764e-05
12 *185:A *190:A1 5.50049e-05
*RES
1 *178:X *31:8 42.7229 
2 *31:8 *31:10 15 
3 *31:10 *190:A1 23.6214 
4 *31:10 *183:A 27.8264 
*END

*D_NET *32 0.00271104
*CONN
*I *195:A1 I *D sky130_fd_sc_hd__a21oi_1
*I *182:A I *D sky130_fd_sc_hd__and3_1
*I *184:C I *D sky130_fd_sc_hd__nor3_1
*I *179:Y O *D sky130_fd_sc_hd__nand3_1
*CAP
1 *195:A1 2.62934e-05
2 *182:A 3.05557e-05
3 *184:C 0
4 *179:Y 0
5 *32:25 0.000358294
6 *32:16 0.000531142
7 *32:4 0.000832587
8 *182:A *182:C 1.14154e-05
9 *195:A1 *182:C 4.45701e-05
10 *195:A1 *196:A 9.75779e-05
11 *195:A1 *196:B 1.37232e-05
12 *32:16 *55:35 6.94863e-05
13 *32:25 *179:B 6.51763e-05
14 *32:25 *182:C 4.37555e-05
15 *32:25 *196:A 0.000184527
16 *32:25 *33:6 2.4754e-05
17 *32:25 *55:31 0.000363951
18 *32:25 *55:35 1.32314e-05
*RES
1 *179:Y *32:4 23 
2 *32:4 *32:16 38.0682 
3 *32:16 *184:C 23 
4 *32:4 *32:25 8.14071 
5 *32:25 *182:A 23.8493 
6 *32:25 *195:A1 24.595 
*END

*D_NET *33 0.000875631
*CONN
*I *195:A2 I *D sky130_fd_sc_hd__a21oi_1
*I *182:B I *D sky130_fd_sc_hd__and3_1
*I *180:X O *D sky130_fd_sc_hd__a22o_1
*CAP
1 *195:A2 0
2 *182:B 0
3 *180:X 0.00011067
4 *33:19 0.000202469
5 *33:6 0.000313139
6 *33:6 *196:A 9.5877e-05
7 *33:19 *196:A 0.000128723
8 *33:19 *45:10 0
9 *33:19 *45:40 0
10 *32:25 *33:6 2.4754e-05
*RES
1 *180:X *33:6 24.5743 
2 *33:6 *182:B 23 
3 *33:6 *33:19 32.7757 
4 *33:19 *195:A2 23 
*END

*D_NET *34 0.00369875
*CONN
*I *195:B1 I *D sky130_fd_sc_hd__a21oi_1
*I *182:C I *D sky130_fd_sc_hd__and3_1
*I *181:X O *D sky130_fd_sc_hd__a32o_1
*CAP
1 *195:B1 0
2 *182:C 0.000193121
3 *181:X 0.000913973
4 *34:12 0.000297593
5 *34:6 0.00101844
6 *182:C *196:A 1.59285e-05
7 *182:C *196:B 2.42625e-05
8 *34:6 *164:A 0.000181125
9 *34:6 *164:B 3.34247e-05
10 *34:6 *166:C 0.000128088
11 *34:6 *45:40 0.000315857
12 *34:6 *46:28 0.000446495
13 *34:6 *58:55 1.70297e-07
14 *34:6 *58:64 3.05276e-05
15 *34:12 *45:10 0
16 *34:12 *45:40 0
17 *182:A *182:C 1.14154e-05
18 *195:A1 *182:C 4.45701e-05
19 *32:25 *182:C 4.37555e-05
*RES
1 *181:X *34:6 37.4379 
2 *34:6 *34:12 31.5536 
3 *34:12 *182:C 26.7286 
4 *34:12 *195:B1 23 
*END

*D_NET *35 0.00601515
*CONN
*I *196:A I *D sky130_fd_sc_hd__nor2_1
*I *192:A3 I *D sky130_fd_sc_hd__a311o_1
*I *190:A2 I *D sky130_fd_sc_hd__o21a_1
*I *183:B I *D sky130_fd_sc_hd__nor2_1
*I *182:X O *D sky130_fd_sc_hd__and3_1
*CAP
1 *196:A 0.00019631
2 *192:A3 0
3 *190:A2 0
4 *183:B 0.000382335
5 *182:X 0
6 *35:44 0.000945107
7 *35:29 0.000987331
8 *35:12 0.000733478
9 *35:4 0.000505228
10 *183:B *185:B 0.000137002
11 *183:B *50:10 1.32939e-05
12 *196:A *196:B 0.00013034
13 *196:A *207:A 0
14 *196:A *49:10 7.43616e-05
15 *35:12 *178:A 6.70914e-05
16 *35:12 *45:10 0.000215791
17 *35:12 *55:19 2.76611e-06
18 *35:12 *60:85 0
19 *35:44 *40:12 5.56356e-05
20 *35:44 *40:25 0.000170602
21 *35:44 *42:10 6.38844e-05
22 *35:44 *60:60 3.08847e-05
23 *35:44 *60:85 0.00032333
24 *182:C *196:A 1.59285e-05
25 *183:A *183:B 1.51547e-05
26 *185:A *183:B 0.000182832
27 *190:B1 *35:29 3.3123e-05
28 *195:A1 *196:A 9.75779e-05
29 *29:10 *35:12 4.08641e-05
30 *29:10 *35:29 1.22803e-05
31 *30:10 *35:44 1.23353e-05
32 *31:8 *35:12 0.000131543
33 *31:8 *35:29 2.96154e-05
34 *32:25 *196:A 0.000184527
35 *33:6 *196:A 9.5877e-05
36 *33:19 *196:A 0.000128723
*RES
1 *182:X *35:4 23 
2 *35:4 *35:12 22.9543 
3 *35:12 *183:B 44.8771 
4 *35:12 *35:29 1.20143 
5 *35:29 *190:A2 38 
6 *35:29 *35:44 33.6014 
7 *35:44 *192:A3 23 
8 *35:4 *196:A 29.38 
*END

*D_NET *36 0.000343648
*CONN
*I *185:B I *D sky130_fd_sc_hd__xnor2_1
*I *183:Y O *D sky130_fd_sc_hd__nor2_1
*CAP
1 *185:B 4.12201e-05
2 *183:Y 4.12201e-05
3 *185:B *50:10 1.76557e-05
4 *183:A *185:B 0.00010655
5 *183:B *185:B 0.000137002
*RES
1 *183:Y *185:B 48.5271 
*END

*D_NET *37 0.00116336
*CONN
*I *192:B1 I *D sky130_fd_sc_hd__a311o_1
*I *184:Y O *D sky130_fd_sc_hd__nor3_1
*CAP
1 *192:B1 0
2 *184:Y 6.93602e-05
3 *37:16 0.00039042
4 *37:8 0.000459781
5 *37:8 *38:10 2.54046e-05
6 *37:16 *38:10 7.15506e-05
7 *37:16 *40:12 1.05441e-05
8 *37:16 *55:54 0.000131529
9 *37:16 *55:75 4.77164e-06
*RES
1 *184:Y *37:8 39.2014 
2 *37:8 *37:16 36.67 
3 *37:16 *192:B1 38 
*END

*D_NET *38 0.00211631
*CONN
*I *187:B I *D sky130_fd_sc_hd__and2_1
*I *188:B I *D sky130_fd_sc_hd__nor2_1
*I *186:Y O *D sky130_fd_sc_hd__a21boi_1
*CAP
1 *187:B 0.000181249
2 *188:B 3.45912e-05
3 *186:Y 0.00033183
4 *38:10 0.00054767
5 *187:B *40:12 2.9131e-05
6 *187:B *40:25 6.7177e-06
7 *38:10 *40:12 4.77164e-06
8 *38:10 *55:54 0
9 *187:A *187:B 0.000258138
10 *25:35 *38:10 0.000233367
11 *27:8 *38:10 0.000318039
12 *30:10 *187:B 1.05441e-05
13 *30:10 *38:10 6.3303e-05
14 *37:8 *38:10 2.54046e-05
15 *37:16 *38:10 7.15506e-05
*RES
1 *186:Y *38:10 46.555 
2 *38:10 *188:B 38.6214 
3 *38:10 *187:B 41.9357 
*END

*D_NET *39 0.000268401
*CONN
*I *189:A I *D sky130_fd_sc_hd__or2_1
*I *187:X O *D sky130_fd_sc_hd__and2_1
*CAP
1 *189:A 0.000131113
2 *187:X 0.000131113
3 *187:A *189:A 6.17437e-06
*RES
1 *187:X *189:A 48.0507 
*END

*D_NET *40 0.00108574
*CONN
*I *189:B I *D sky130_fd_sc_hd__or2_1
*I *192:C1 I *D sky130_fd_sc_hd__a311o_1
*I *188:Y O *D sky130_fd_sc_hd__nor2_1
*CAP
1 *189:B 0
2 *192:C1 0
3 *188:Y 0
4 *40:25 0.00025245
5 *40:12 0.000113007
6 *40:4 0.000365457
7 *40:12 *55:75 9.52056e-06
8 *187:A *40:25 6.79006e-05
9 *187:B *40:12 2.9131e-05
10 *187:B *40:25 6.7177e-06
11 *35:44 *40:12 5.56356e-05
12 *35:44 *40:25 0.000170602
13 *37:16 *40:12 1.05441e-05
14 *38:10 *40:12 4.77164e-06
*RES
1 *188:Y *40:4 23 
2 *40:4 *40:12 31.8229 
3 *40:12 *192:C1 23 
4 *40:4 *40:25 34.3086 
5 *40:25 *189:B 23 
*END

*D_NET *41 0.00074776
*CONN
*I *191:A I *D sky130_fd_sc_hd__xnor2_1
*I *189:X O *D sky130_fd_sc_hd__or2_1
*CAP
1 *191:A 0
2 *189:X 0.00037388
3 *41:6 0.00037388
*RES
1 *189:X *41:6 29.815 
2 *41:6 *191:A 23 
*END

*D_NET *42 0.000642265
*CONN
*I *191:B I *D sky130_fd_sc_hd__xnor2_1
*I *190:X O *D sky130_fd_sc_hd__o21a_1
*CAP
1 *191:B 0
2 *190:X 0.000266244
3 *42:10 0.000266244
4 *42:10 *60:85 4.58924e-05
5 *35:44 *42:10 6.38844e-05
*RES
1 *190:X *42:10 43.3443 
2 *42:10 *191:B 38 
*END

*D_NET *43 0.00222245
*CONN
*I *194:B I *D sky130_fd_sc_hd__xnor2_1
*I *193:C I *D sky130_fd_sc_hd__and3_1
*I *192:X O *D sky130_fd_sc_hd__a311o_1
*CAP
1 *194:B 0
2 *193:C 0.00011209
3 *192:X 0.000355083
4 *43:21 0.00024404
5 *43:6 0.000711213
6 *193:C *170:B 4.66047e-05
7 *193:C *193:A 5.50049e-05
8 *193:C *56:6 1.40314e-06
9 *43:6 *193:A 7.86156e-05
10 *43:6 *60:60 0.000244232
11 *43:21 *56:18 1.97329e-05
12 *43:21 *60:34 2.71291e-05
13 *194:A *43:21 0.000185428
14 *23:8 *43:21 0.000141879
*RES
1 *192:X *43:6 28.8621 
2 *43:6 *193:C 24.6571 
3 *43:6 *43:21 35.7171 
4 *43:21 *194:B 23 
*END

*D_NET *44 0.000245676
*CONN
*I *196:B I *D sky130_fd_sc_hd__nor2_1
*I *195:Y O *D sky130_fd_sc_hd__a21oi_1
*CAP
1 *196:B 3.86748e-05
2 *195:Y 3.86748e-05
3 *182:C *196:B 2.42625e-05
4 *195:A1 *196:B 1.37232e-05
5 *196:A *196:B 0.00013034
*RES
1 *195:Y *196:B 47.4966 
*END

*D_NET *45 0.00320695
*CONN
*I *198:A I *D sky130_fd_sc_hd__clkbuf_1
*I *178:C I *D sky130_fd_sc_hd__and3_1
*I *179:C I *D sky130_fd_sc_hd__nand3_1
*I *164:X O *D sky130_fd_sc_hd__and2_1
*CAP
1 *198:A 0
2 *178:C 1.53867e-05
3 *179:C 0
4 *164:X 0
5 *45:40 0.000370152
6 *45:20 0.00041596
7 *45:10 0.00078448
8 *45:4 0.000723285
9 *45:10 *55:10 0
10 *45:10 *55:19 0
11 *45:20 *178:A 9.84851e-05
12 *45:20 *178:B 9.32948e-05
13 *45:20 *46:34 3.92407e-05
14 *45:20 *55:31 5.94125e-05
15 *45:20 *60:85 2.82307e-05
16 *45:20 *60:89 4.73689e-05
17 P[1] *45:40 0
18 *33:19 *45:10 0
19 *33:19 *45:40 0
20 *34:6 *45:40 0.000315857
21 *34:12 *45:10 0
22 *34:12 *45:40 0
23 *35:12 *45:10 0.000215791
*RES
1 *164:X *45:4 23 
2 *45:4 *45:10 35.7793 
3 *45:10 *45:20 38.5964 
4 *45:20 *179:C 23 
5 *45:10 *178:C 23.2279 
6 *45:4 *45:40 37.6436 
7 *45:40 *198:A 23 
*END

*D_NET *46 0.00293926
*CONN
*I *164:A I *D sky130_fd_sc_hd__and2_1
*I *180:B2 I *D sky130_fd_sc_hd__a22o_1
*I *166:A I *D sky130_fd_sc_hd__and3_1
*I *167:B2 I *D sky130_fd_sc_hd__a22o_1
*I *199:X O *D sky130_fd_sc_hd__buf_1
*CAP
1 *164:A 8.0274e-05
2 *180:B2 0
3 *166:A 0
4 *167:B2 0.000279908
5 *199:X 0.00013838
6 *46:34 0.000121049
7 *46:28 0.000283569
8 *46:21 0.000264621
9 *46:6 0.000600663
10 *164:A *164:B 3.23684e-05
11 *164:A *58:64 7.1349e-05
12 *167:B2 *167:B1 1.8788e-05
13 *167:B2 *58:55 6.78027e-05
14 *46:21 *58:55 4.96811e-06
15 *46:21 *61:10 0
16 *46:28 *58:64 0.000252044
17 *46:34 *55:10 0
18 *46:34 *58:70 3.88504e-05
19 *46:34 *60:89 6.07611e-06
20 P[0] *167:B2 1.16862e-05
21 *34:6 *164:A 0.000181125
22 *34:6 *46:28 0.000446495
23 *45:20 *46:34 3.92407e-05
*RES
1 *199:X *46:6 25.0507 
2 *46:6 *167:B2 27.8057 
3 *46:6 *46:21 32.9621 
4 *46:21 *166:A 23 
5 *46:21 *46:28 4.90929 
6 *46:28 *46:34 32.2579 
7 *46:34 *180:B2 23 
8 *46:28 *164:A 25.5479 
*END

*D_NET *47 0.000259326
*CONN
*I *207:A I *D sky130_fd_sc_hd__buf_2
*I *198:X O *D sky130_fd_sc_hd__clkbuf_1
*CAP
1 *207:A 0.000100493
2 *198:X 0.000100493
3 *207:A *49:10 5.83407e-05
4 *196:A *207:A 0
*RES
1 *198:X *207:A 48.4236 
*END

*D_NET *48 0.000506538
*CONN
*I *208:A I *D sky130_fd_sc_hd__buf_2
*I *169:X O *D sky130_fd_sc_hd__xor2_1
*CAP
1 *208:A 0
2 *169:X 0.000194493
3 *48:10 0.000194493
4 *48:10 *167:A2 0
5 *48:10 *58:36 7.80251e-05
6 P[2] *48:10 0
7 *169:B *48:10 2.93845e-05
8 *205:A *48:10 1.01436e-05
9 *21:8 *48:10 0
*RES
1 *169:X *48:10 41.3557 
2 *48:10 *208:A 38 
*END

*D_NET *49 0.00119519
*CONN
*I *209:A I *D sky130_fd_sc_hd__buf_2
*I *196:Y O *D sky130_fd_sc_hd__nor2_1
*CAP
1 *209:A 0
2 *196:Y 0.000498508
3 *49:10 0.000498508
4 P[3] *49:10 6.54744e-05
5 *196:A *49:10 7.43616e-05
6 *207:A *49:10 5.83407e-05
*RES
1 *196:Y *49:10 46.6793 
2 *49:10 *209:A 38 
*END

*D_NET *50 0.00118175
*CONN
*I *210:A I *D sky130_fd_sc_hd__buf_2
*I *185:Y O *D sky130_fd_sc_hd__xnor2_1
*CAP
1 *210:A 0
2 *185:Y 0.000540319
3 *50:10 0.000540319
4 P[4] *50:10 1.34542e-05
5 *183:A *50:10 5.67058e-05
6 *183:B *50:10 1.32939e-05
7 *185:B *50:10 1.76557e-05
*RES
1 *185:Y *50:10 47.0314 
2 *50:10 *210:A 38 
*END

*D_NET *51 0.00159388
*CONN
*I *211:A I *D sky130_fd_sc_hd__buf_2
*I *191:Y O *D sky130_fd_sc_hd__xnor2_1
*CAP
1 *211:A 0
2 *191:Y 0.000764204
3 *51:10 0.000764204
4 P[5] *51:10 6.54744e-05
*RES
1 *191:Y *51:10 49.89 
2 *51:10 *211:A 38 
*END

*D_NET *52 0.000745453
*CONN
*I *212:A I *D sky130_fd_sc_hd__buf_2
*I *194:Y O *D sky130_fd_sc_hd__xnor2_1
*CAP
1 *212:A 0
2 *194:Y 0.000341895
3 *52:10 0.000341895
4 P[6] *52:10 6.16635e-05
*RES
1 *194:Y *52:10 44.1729 
2 *52:10 *212:A 38 
*END

*D_NET *53 0.000882179
*CONN
*I *213:A I *D sky130_fd_sc_hd__buf_2
*I *193:X O *D sky130_fd_sc_hd__and3_1
*CAP
1 *213:A 0
2 *193:X 0.00030405
3 *53:10 0.00030405
4 *53:10 *56:6 0.000274078
*RES
1 *193:X *53:10 43.2614 
2 *53:10 *213:A 38 
*END

*D_NET *54 0.00545359
*CONN
*I *166:C I *D sky130_fd_sc_hd__and3_1
*I *167:A2 I *D sky130_fd_sc_hd__a22o_1
*I *171:B I *D sky130_fd_sc_hd__nand4_1
*I *172:A1 I *D sky130_fd_sc_hd__a22o_1
*I *200:X O *D sky130_fd_sc_hd__buf_1
*CAP
1 *166:C 0.000330421
2 *167:A2 0.000200772
3 *171:B 0
4 *172:A1 0.000116564
5 *200:X 0.000555003
6 *54:36 0.000865691
7 *54:16 0.000317041
8 *54:10 0.00108998
9 *166:C *58:55 8.56883e-06
10 *167:A2 *173:A 1.00765e-05
11 *167:A2 *58:36 0
12 *167:A2 *59:12 0.000160075
13 *167:A2 *59:18 2.49675e-05
14 *167:A2 *61:10 0
15 *172:A1 *171:D 0.00010655
16 *172:A1 *58:28 2.64616e-05
17 *172:A1 *60:20 0.000185434
18 *54:10 *57:12 2.93845e-05
19 *54:16 *58:24 3.93338e-05
20 *54:16 *58:36 7.91596e-05
21 *54:16 *60:12 1.01436e-05
22 *54:16 *60:20 0
23 *54:36 *173:A 4.06408e-05
24 *54:36 *55:54 5.94125e-05
25 *54:36 *57:12 6.22712e-05
26 *54:36 *57:23 0.000315852
27 *54:36 *58:36 0
28 P[2] *167:A2 6.16439e-05
29 *181:A3 *166:C 0.000277381
30 *181:A3 *167:A2 5.94125e-05
31 *19:10 *54:10 8.06804e-06
32 *20:8 *166:C 6.36094e-05
33 *21:8 *167:A2 0.00011101
34 *25:10 *172:A1 1.03955e-05
35 *25:10 *54:16 0
36 *26:10 *54:36 0.00010018
37 *34:6 *166:C 0.000128088
38 *48:10 *167:A2 0
*RES
1 *200:X *54:10 30.9336 
2 *54:10 *54:16 33.3143 
3 *54:16 *172:A1 26.5007 
4 *54:16 *171:B 23 
5 *54:10 *54:36 22.5193 
6 *54:36 *167:A2 42.785 
7 *54:36 *166:C 43.8621 
*END

*D_NET *55 0.00746958
*CONN
*I *178:A I *D sky130_fd_sc_hd__and3_1
*I *179:A I *D sky130_fd_sc_hd__nand3_1
*I *181:A2 I *D sky130_fd_sc_hd__a32o_1
*I *173:B I *D sky130_fd_sc_hd__and2_1
*I *177:A I *D sky130_fd_sc_hd__nand2_1
*I *192:A1 I *D sky130_fd_sc_hd__a311o_1
*I *165:B I *D sky130_fd_sc_hd__nand2_1
*I *180:A2 I *D sky130_fd_sc_hd__a22o_1
*I *201:X O *D sky130_fd_sc_hd__clkbuf_2
*CAP
1 *178:A 0.00016539
2 *179:A 0
3 *181:A2 0
4 *173:B 0
5 *177:A 0
6 *192:A1 0
7 *165:B 0.000114725
8 *180:A2 0
9 *201:X 0.0003619
10 *55:91 0.000108565
11 *55:75 0.000378067
12 *55:54 0.00101176
13 *55:39 0.000898694
14 *55:35 0.000594184
15 *55:31 0.000575817
16 *55:19 0.000447566
17 *55:10 0.000403603
18 *165:B *57:23 0.000269769
19 *178:A *60:85 5.91383e-05
20 *178:A *60:89 4.85126e-05
21 *55:10 *58:70 0.000191157
22 *55:10 *60:89 6.07611e-06
23 *55:19 *60:89 2.3529e-05
24 *55:31 *179:B 3.22879e-05
25 *55:35 *57:23 1.12349e-05
26 *55:35 *61:10 5.40241e-05
27 *55:39 *57:23 7.08215e-05
28 *55:54 *173:A 4.6318e-06
29 *55:54 *58:36 0
30 *55:54 *60:74 2.11157e-05
31 *55:75 *60:74 0.000326352
32 *55:91 *57:29 0.000160906
33 *55:91 *61:10 3.32862e-05
34 *187:A *55:75 4.82477e-05
35 *25:35 *55:54 0.000135557
36 *26:10 *55:54 0
37 *26:27 *55:54 2.24608e-05
38 *30:10 *55:75 1.05441e-05
39 *32:16 *55:35 6.94863e-05
40 *32:25 *55:31 0.000363951
41 *32:25 *55:35 1.32314e-05
42 *35:12 *178:A 6.70914e-05
43 *35:12 *55:19 2.76611e-06
44 *37:16 *55:54 0.000131529
45 *37:16 *55:75 4.77164e-06
46 *38:10 *55:54 0
47 *40:12 *55:75 9.52056e-06
48 *45:10 *55:10 0
49 *45:10 *55:19 0
50 *45:20 *178:A 9.84851e-05
51 *45:20 *55:31 5.94125e-05
52 *46:34 *55:10 0
53 *54:36 *55:54 5.94125e-05
*RES
1 *201:X *55:10 44.1729 
2 *55:10 *180:A2 38 
3 *55:10 *55:19 0.849286 
4 *55:19 *55:31 49.9507 
5 *55:31 *55:35 7.31214 
6 *55:35 *55:39 2.54786 
7 *55:39 *165:B 26.0036 
8 *55:39 *55:54 27.6564 
9 *55:54 *192:A1 38 
10 *55:54 *55:75 33.1796 
11 *55:75 *177:A 23 
12 *55:39 *173:B 23 
13 *55:35 *55:91 32.2579 
14 *55:91 *181:A2 23 
15 *55:31 *179:A 23 
16 *55:19 *178:A 42.06 
*END

*D_NET *56 0.00248438
*CONN
*I *193:B I *D sky130_fd_sc_hd__and3_1
*I *170:B I *D sky130_fd_sc_hd__nand2_1
*I *172:B1 I *D sky130_fd_sc_hd__a22o_1
*I *171:D I *D sky130_fd_sc_hd__nand4_1
*I *202:X O *D sky130_fd_sc_hd__buf_1
*CAP
1 *193:B 2.34823e-05
2 *170:B 6.59794e-05
3 *172:B1 0
4 *171:D 8.66971e-05
5 *202:X 0.00017201
6 *56:18 0.000541126
7 *56:8 0.000560524
8 *56:6 0.000235608
9 *170:B *193:A 5.50049e-05
10 *171:D *58:24 9.90162e-05
11 *56:8 *193:A 0
12 *56:18 *58:10 9.98891e-05
13 *56:18 *58:24 6.07611e-06
14 *56:18 *60:12 0
15 *56:18 *60:20 3.55887e-05
16 *56:18 *60:34 0
17 *172:A1 *171:D 0.00010655
18 *193:C *170:B 4.66047e-05
19 *193:C *56:6 1.40314e-06
20 *25:10 *171:D 5.50049e-05
21 *43:21 *56:18 1.97329e-05
22 *53:10 *56:6 0.000274078
*RES
1 *202:X *56:6 27.4329 
2 *56:6 *56:8 0.849286 
3 *56:8 *56:18 39.0107 
4 *56:18 *171:D 26.5214 
5 *56:18 *172:B1 23 
6 *56:8 *170:B 24.5743 
7 *56:6 *193:B 23.4971 
*END

*D_NET *57 0.00257289
*CONN
*I *197:A I *D sky130_fd_sc_hd__clkbuf_1
*I *181:A1 I *D sky130_fd_sc_hd__a32o_1
*I *165:A I *D sky130_fd_sc_hd__nand2_1
*I *203:X O *D sky130_fd_sc_hd__buf_1
*CAP
1 *197:A 0
2 *181:A1 0
3 *165:A 0
4 *203:X 0.000192816
5 *57:29 0.000103159
6 *57:23 0.000305525
7 *57:12 0.000263022
8 *57:8 0.000253473
9 *57:8 *58:36 0.000113739
10 *57:29 *173:A 0.000173068
11 *57:29 *59:12 6.78755e-06
12 *165:B *57:23 0.000269769
13 *19:10 *57:8 0.000141869
14 *19:10 *57:12 9.91895e-05
15 *54:10 *57:12 2.93845e-05
16 *54:36 *57:12 6.22712e-05
17 *54:36 *57:23 0.000315852