*SPEF "ieee 1481-1999"
*DESIGN "SarsaNada_e6"
*DATE "18:20:37 Tuesday September 16, 2025"
*VENDOR "The OpenROAD Project"
*PROGRAM "OpenROAD"
*VERSION "edf00dff99f6c40d67a30c0e22a8191c5d2ed9d6"
*DESIGN_FLOW "NAME_SCOPE LOCAL" "PIN_CAP NONE"
*DIVIDER /
*DELIMITER :
*BUS_DELIMITER []
*T_UNIT 1 NS
*C_UNIT 1 PF
*R_UNIT 1 OHM
*L_UNIT 1 HENRY

*NAME_MAP
*1 A[0]
*2 A[1]
*3 B[0]
*4 B[1]
*5 P[0]
*6 P[1]
*7 P[2]
*8 P[3]
*11 _0_
*12 _1_
*13 _2_
*14 net1
*15 net2
*16 net3
*17 net4
*18 net5
*19 net6
*20 net7
*21 net8
*22 FILLER_0_15
*23 FILLER_0_27
*24 FILLER_0_29
*25 FILLER_0_3
*26 FILLER_0_41
*27 FILLER_0_53
*28 FILLER_0_57
*29 FILLER_0_69
*30 FILLER_1_15
*31 FILLER_1_27
*32 FILLER_1_3
*33 FILLER_1_39
*34 FILLER_1_51
*35 FILLER_1_55
*36 FILLER_1_57
*37 FILLER_1_69
*38 FILLER_2_18
*39 FILLER_2_26
*40 FILLER_2_29
*41 FILLER_2_41
*42 FILLER_2_53
*43 FILLER_2_6
*44 FILLER_2_65
*45 FILLER_2_77
*46 FILLER_3_15
*47 FILLER_3_27
*48 FILLER_3_3
*49 FILLER_3_39
*50 FILLER_3_51
*51 FILLER_3_55
*52 FILLER_3_57
*53 FILLER_3_69
*54 FILLER_4_11
*55 FILLER_4_25
*56 FILLER_4_34
*57 FILLER_4_46
*58 FILLER_4_58
*59 FILLER_4_7
*60 FILLER_4_70
*61 FILLER_4_76
*62 FILLER_5_14
*63 FILLER_5_34
*64 FILLER_5_46
*65 FILLER_5_54
*66 FILLER_5_57
*67 FILLER_5_6
*68 FILLER_5_66
*69 FILLER_5_71
*70 FILLER_6_18
*71 FILLER_6_26
*72 FILLER_6_29
*73 FILLER_6_41
*74 FILLER_6_53
*75 FILLER_6_6
*76 FILLER_6_65
*77 FILLER_7_18
*78 FILLER_7_30
*79 FILLER_7_42
*80 FILLER_7_54
*81 FILLER_7_57
*82 FILLER_7_6
*83 FILLER_7_69
*84 FILLER_8_15
*85 FILLER_8_27
*86 FILLER_8_29
*87 FILLER_8_3
*88 FILLER_8_41
*89 FILLER_8_53
*90 FILLER_8_65
*91 FILLER_8_77
*92 FILLER_9_15
*93 FILLER_9_27
*94 FILLER_9_29
*95 FILLER_9_3
*96 FILLER_9_41
*97 FILLER_9_53
*98 FILLER_9_57
*99 FILLER_9_69
*100 PHY_EDGE_ROW_0_Left_10
*101 PHY_EDGE_ROW_0_Right_0
*102 PHY_EDGE_ROW_1_Left_11
*103 PHY_EDGE_ROW_1_Right_1
*104 PHY_EDGE_ROW_2_Left_12
*105 PHY_EDGE_ROW_2_Right_2
*106 PHY_EDGE_ROW_3_Left_13
*107 PHY_EDGE_ROW_3_Right_3
*108 PHY_EDGE_ROW_4_Left_14
*109 PHY_EDGE_ROW_4_Right_4
*110 PHY_EDGE_ROW_5_Left_15
*111 PHY_EDGE_ROW_5_Right_5
*112 PHY_EDGE_ROW_6_Left_16
*113 PHY_EDGE_ROW_6_Right_6
*114 PHY_EDGE_ROW_7_Left_17
*115 PHY_EDGE_ROW_7_Right_7
*116 PHY_EDGE_ROW_8_Left_18
*117 PHY_EDGE_ROW_8_Right_8
*118 PHY_EDGE_ROW_9_Left_19
*119 PHY_EDGE_ROW_9_Right_9
*120 TAP_TAPCELL_ROW_0_20
*121 TAP_TAPCELL_ROW_0_21
*122 TAP_TAPCELL_ROW_1_22
*123 TAP_TAPCELL_ROW_2_23
*124 TAP_TAPCELL_ROW_3_24
*125 TAP_TAPCELL_ROW_4_25
*126 TAP_TAPCELL_ROW_5_26
*127 TAP_TAPCELL_ROW_6_27
*128 TAP_TAPCELL_ROW_7_28
*129 TAP_TAPCELL_ROW_8_29
*130 TAP_TAPCELL_ROW_9_30
*131 TAP_TAPCELL_ROW_9_31
*132 _3_
*133 _4_
*134 _5_
*135 _6_
*136 _7_
*137 _8_
*138 _9_
*139 input1
*140 input2
*141 input3
*142 input4
*143 output5
*144 output6
*145 output7
*146 output8

*PORTS
A[0] I
A[1] I
B[0] I
B[1] I
P[0] O
P[1] O
P[2] O
P[3] O

*D_NET *1 0.000616196
*CONN
*P A[0] I
*I *139:A I *D sky130_fd_sc_hd__buf_1
*CAP
1 A[0] 0.000297475
2 *139:A 0.000297475
3 *139:A *140:A 2.12457e-05
*RES
1 A[0] *139:A 49.8062 
*END

*D_NET *2 0.000565793
*CONN
*P A[1] I
*I *140:A I *D sky130_fd_sc_hd__buf_1
*CAP
1 A[1] 0.000258318
2 *140:A 0.000258318
3 *140:A *4:17 2.79122e-05
4 *139:A *140:A 2.12457e-05
*RES
1 A[1] *140:A 47.7832 
*END

*D_NET *3 0.000666589
*CONN
*P B[0] I
*I *141:A I *D sky130_fd_sc_hd__buf_1
*CAP
1 B[0] 0.000320228
2 *141:A 0
3 *3:17 0.000320228
4 *3:17 P[0] 2.61329e-05
*RES
1 B[0] *3:17 27.1584 
2 *3:17 *141:A 23 
*END

*D_NET *4 0.00071699
*CONN
*P B[1] I
*I *142:A I *D sky130_fd_sc_hd__buf_1
*CAP
1 B[1] 0.000330094
2 *142:A 0
3 *4:17 0.000330094
4 *4:17 P[0] 2.88889e-05
5 *140:A *4:17 2.79122e-05
*RES
1 B[1] *4:17 27.8627 
2 *4:17 *142:A 23 
*END

*D_NET *5 0.000829325
*CONN
*P P[0] O
*I *143:X O *D sky130_fd_sc_hd__buf_2
*CAP
1 P[0] 9.33412e-05
2 *143:X 0.00029381
3 *5:10 0.000387151
4 *3:17 P[0] 2.61329e-05
5 *4:17 P[0] 2.88889e-05
*RES
1 *143:X *5:10 42.5054 
2 *5:10 P[0] 8.4816 
*END

*D_NET *6 0.000520154
*CONN
*P P[1] O
*I *144:X O *D sky130_fd_sc_hd__buf_2
*CAP
1 P[1] 0.000210018
2 *144:X 0.000210018
3 P[1] P[3] 8.73764e-05
4 P[1] *19:10 1.27424e-05
*RES
1 *144:X P[1] 47.1648 
*END

*D_NET *7 0.000673721
*CONN
*P P[2] O
*I *145:X O *D sky130_fd_sc_hd__buf_2
*CAP
1 P[2] 0.000293173
2 *145:X 0.000293173
3 P[2] P[3] 8.73764e-05
*RES
1 *145:X P[2] 48.5734 
*END

*D_NET *8 0.000615305
*CONN
*P P[3] O
*I *146:X O *D sky130_fd_sc_hd__buf_2
*CAP
1 P[3] 0.000220276
2 *146:X 0.000220276
3 P[1] P[3] 8.73764e-05
4 P[2] P[3] 8.73764e-05
*RES
1 *146:X P[3] 47.8691 
*END

*D_NET *11 0.00418899
*CONN
*I *135:A I *D sky130_fd_sc_hd__inv_2
*I *137:A I *D sky130_fd_sc_hd__and2_1
*I *138:C I *D sky130_fd_sc_hd__and3_1
*I *134:Y O *D sky130_fd_sc_hd__nand4_2
*CAP
1 *135:A 0.000188422
2 *137:A 0
3 *138:C 0
4 *134:Y 0.000248654
5 *11:23 0.000728308
6 *11:14 0.000189784
7 *11:6 0.000978324
8 *135:A *12:8 5.55632e-05
9 *135:A *19:10 0.000143655
10 *11:6 *136:A1 2.80924e-06
11 *11:6 *136:B1 0.000289132
12 *11:14 *15:25 1.39431e-05
13 *11:14 *15:31 8.4047e-05
14 *11:14 *16:10 0
15 *11:14 *16:19 0
16 *11:23 *136:A1 5.37348e-06
17 *11:23 *136:B1 2.02517e-05
18 *11:23 *12:8 0.00124072
*RES
1 *134:Y *11:6 26.9564 
2 *11:6 *11:14 33.3143 
3 *11:14 *138:C 23 
4 *11:6 *11:23 15.7636 
5 *11:23 *137:A 23 
6 *11:23 *135:A 27.8264 
*END

*D_NET *12 0.00258623
*CONN
*I *137:B I *D sky130_fd_sc_hd__and2_1
*I *136:X O *D sky130_fd_sc_hd__a22o_1
*CAP
1 *137:B 0
2 *136:X 0.00064497
3 *12:8 0.00064497
4 *135:A *12:8 5.55632e-05
5 *11:23 *12:8 0.00124072
*RES
1 *136:X *12:8 38.2871 
2 *12:8 *137:B 23 
*END

*D_NET *13 0.000278395
*CONN
*I *133:B I *D sky130_fd_sc_hd__and2_1
*I *132:X O *D sky130_fd_sc_hd__a21bo_1
*CAP
1 *133:B 2.13616e-05
2 *132:X 2.13616e-05
3 *133:B *138:A 0.000143655
4 *133:B *15:25 3.53115e-05
5 *133:B *18:8 5.67058e-05
*RES
1 *132:X *133:B 47.5743 
*END

*D_NET *14 0.0031512
*CONN
*I *134:D I *D sky130_fd_sc_hd__nand4_2
*I *136:B1 I *D sky130_fd_sc_hd__a22o_1
*I *132:A2 I *D sky130_fd_sc_hd__a21bo_1
*I *139:X O *D sky130_fd_sc_hd__buf_1
*CAP
1 *134:D 0
2 *136:B1 0.000186762
3 *132:A2 0.000137643
4 *139:X 0.000716094
5 *14:12 0.000379763
6 *14:10 0.000771453
7 *132:A2 *15:12 0
8 *132:A2 *16:10 0
9 *132:A2 *16:19 0
10 *132:A2 *17:12 0.000163352
11 *136:B1 *136:A1 4.15358e-05
12 *136:B1 *136:B2 2.4754e-05
13 *136:B1 *17:32 0.000420456
14 *14:10 *136:A1 0
15 *14:10 *15:12 0
16 *14:10 *16:19 0
17 *14:12 *15:12 0
18 *14:12 *16:19 0
19 *11:6 *136:B1 0.000289132
20 *11:23 *136:B1 2.02517e-05
*RES
1 *139:X *14:10 48.585 
2 *14:10 *14:12 0.849286 
3 *14:12 *132:A2 40.61 
4 *14:12 *136:B1 44.8564 
5 *14:10 *134:D 38 
*END

*D_NET *15 0.00390227
*CONN
*I *134:C I *D sky130_fd_sc_hd__nand4_2
*I *138:B I *D sky130_fd_sc_hd__and3_1
*I *136:A2 I *D sky130_fd_sc_hd__a22o_1
*I *132:B1_N I *D sky130_fd_sc_hd__a21bo_1
*I *140:X O *D sky130_fd_sc_hd__buf_1
*CAP
1 *134:C 0.00032417
2 *138:B 0
3 *136:A2 0
4 *132:B1_N 6.98436e-05
5 *140:X 0.000354059
6 *15:31 0.000147697
7 *15:25 0.000776831
8 *15:12 0.000873303
9 *15:10 0.000852555
10 *132:B1_N *17:12 0
11 *134:C *17:6 1.83763e-05
12 *134:C *17:32 7.05498e-05
13 *15:25 *138:A 8.7843e-05
14 *15:25 *18:8 0.000193739
15 *15:31 *136:A1 0
16 *15:31 *16:19 0
17 *132:A2 *15:12 0
18 *133:B *15:25 3.53115e-05
19 *11:14 *15:25 1.39431e-05
20 *11:14 *15:31 8.4047e-05
21 *14:10 *15:12 0
22 *14:12 *15:12 0
*RES
1 *140:X *15:10 42.6814 
2 *15:10 *15:12 2.96214 
3 *15:12 *132:B1_N 39.2014 
4 *15:12 *15:25 24.1971 
5 *15:25 *15:31 32.2579 
6 *15:31 *136:A2 23 
7 *15:25 *138:B 23 
8 *15:10 *134:C 42.8057 
*END

*D_NET *16 0.003005
*CONN
*I *136:A1 I *D sky130_fd_sc_hd__a22o_1
*I *134:B I *D sky130_fd_sc_hd__nand4_2
*I *133:A I *D sky130_fd_sc_hd__and2_1
*I *141:X O *D sky130_fd_sc_hd__buf_1
*CAP
1 *136:A1 0.000299405
2 *134:B 0
3 *133:A 0
4 *141:X 0.000654458
5 *16:19 0.000517852
6 *16:10 0.000482922
7 *16:8 0.000918934
8 *136:A1 *136:B2 3.22879e-05
9 *136:A1 *17:32 4.94192e-05
10 *132:A2 *16:10 0
11 *132:A2 *16:19 0
12 *136:B1 *136:A1 4.15358e-05
13 *11:6 *136:A1 2.80924e-06
14 *11:14 *16:10 0
15 *11:14 *16:19 0
16 *11:23 *136:A1 5.37348e-06
17 *14:10 *136:A1 0
18 *14:10 *16:19 0
19 *14:12 *16:19 0
20 *15:31 *136:A1 0
21 *15:31 *16:19 0
*RES
1 *141:X *16:8 46.7207 
2 *16:8 *16:10 4.72286 
3 *16:10 *133:A 38 
4 *16:10 *16:19 3.31429 
5 *16:19 *134:B 38 
6 *16:19 *136:A1 42.8264 
*END

*D_NET *17 0.0031987
*CONN
*I *136:B2 I *D sky130_fd_sc_hd__a22o_1
*I *134:A I *D sky130_fd_sc_hd__nand4_2
*I *132:A1 I *D sky130_fd_sc_hd__a21bo_1
*I *138:A I *D sky130_fd_sc_hd__and3_1
*I *142:X O *D sky130_fd_sc_hd__buf_1
*CAP
1 *136:B2 8.84433e-06
2 *134:A 0
3 *132:A1 0
4 *138:A 0.000313387
5 *142:X 0.000410575
6 *17:32 0.00020167
7 *17:12 0.000444629
8 *17:6 0.000734642
9 *138:A *18:8 7.42621e-05
10 *132:A2 *17:12 0.000163352
11 *132:B1_N *17:12 0
12 *133:B *138:A 0.000143655
13 *134:C *17:6 1.83763e-05
14 *134:C *17:32 7.05498e-05
15 *136:A1 *136:B2 3.22879e-05
16 *136:A1 *17:32 4.94192e-05
17 *136:B1 *136:B2 2.4754e-05
18 *136:B1 *17:32 0.000420456
19 *15:25 *138:A 8.7843e-05
*RES
1 *142:X *17:6 28.3857 
2 *17:6 *17:12 32.2579 
3 *17:12 *138:A 29.8357 
4 *17:12 *132:A1 23 
5 *17:6 *17:32 6.25571 
6 *17:32 *134:A 23 
7 *17:32 *136:B2 23.6214 
*END

*D_NET *18 0.000919355
*CONN
*I *143:A I *D sky130_fd_sc_hd__buf_2
*I *133:X O *D sky130_fd_sc_hd__and2_1
*CAP
1 *143:A 0
2 *133:X 0.000297324
3 *18:8 0.000297324
4 *133:B *18:8 5.67058e-05
5 *138:A *18:8 7.42621e-05
6 *15:25 *18:8 0.000193739
*RES
1 *133:X *18:8 30.3121 
2 *18:8 *143:A 23 
*END

*D_NET *19 0.00127644
*CONN
*I *144:A I *D sky130_fd_sc_hd__buf_2
*I *137:X O *D sky130_fd_sc_hd__and2_1
*CAP
1 *144:A 0
2 *137:X 0.000457237
3 *19:10 0.000457237
4 *19:10 *146:A 0.000205566
5 P[1] *19:10 1.27424e-05
6 *135:A *19:10 0.000143655
*RES
1 *137:X *19:10 45.7679 
2 *19:10 *144:A 38 
*END

*D_NET *20 0.00249492
*CONN
*I *145:A I *D sky130_fd_sc_hd__buf_2
*I *138:X O *D sky130_fd_sc_hd__and3_1
*CAP
1 *145:A 0
2 *138:X 0.00124746
3 *20:10 0.00124746
*RES
1 *138:X *20:10 45.1021 
2 *20:10 *145:A 23 
*END

*D_NET *21 0.000470224
*CONN
*I *146:A I *D sky130_fd_sc_hd__buf_2
*I *135:Y O *D sky130_fd_sc_hd__inv_2
*CAP
1 *146:A 0.000132329
2 *135:Y 0.000132329
3 *19:10 *146:A 0.000205566
*RES
1 *135:Y *146:A 49.9564 
*END
