*SPEF "ieee 1481-1999"
*DESIGN "mult4_SarsaNada_e8_SARSA_RUIDO_e9_SARSA_RUIDO_e9_SARSA_RUIDO_e9"
*DATE "18:51:09 Tuesday September 16, 2025"
*VENDOR "The OpenROAD Project"
*PROGRAM "OpenROAD"
*VERSION "edf00dff99f6c40d67a30c0e22a8191c5d2ed9d6"
*DESIGN_FLOW "NAME_SCOPE LOCAL" "PIN_CAP NONE"
*DIVIDER /
*DELIMITER :
*BUS_DELIMITER []
*T_UNIT 1 NS
*C_UNIT 1 PF
*R_UNIT 1 OHM
*L_UNIT 1 HENRY

*NAME_MAP
*1 A[0]
*2 A[1]
*3 A[2]
*4 A[3]
*5 B[0]
*6 B[1]
*7 B[2]
*8 B[3]
*9 P[0]
*10 P[1]
*11 P[2]
*12 P[3]
*13 P[4]
*14 P[5]
*15 P[6]
*16 P[7]
*19 _000_
*20 _001_
*21 _002_
*22 _003_
*23 _004_
*24 _005_
*25 _006_
*26 _007_
*27 _008_
*28 _009_
*29 _010_
*30 _011_
*31 _012_
*32 _013_
*33 _014_
*34 _015_
*35 _016_
*36 _017_
*37 _018_
*38 _019_
*39 _020_
*40 _021_
*41 _022_
*42 _023_
*43 _024_
*44 _025_
*45 _026_
*46 _027_
*47 _028_
*48 _029_
*49 _030_
*50 _031_
*51 _032_
*52 _033_
*53 _034_
*54 _035_
*55 _036_
*56 _037_
*57 _038_
*58 _039_
*59 _040_
*60 _041_
*61 _042_
*62 _043_
*63 _044_
*64 _045_
*65 _046_
*66 net1
*67 net10
*68 net11
*69 net12
*70 net13
*71 net14
*72 net15
*73 net16
*74 net2
*75 net3
*76 net4
*77 net5
*78 net6
*79 net7
*80 net8
*81 net9
*82 FILLER_0_15
*83 FILLER_0_27
*84 FILLER_0_3
*85 FILLER_0_35
*86 FILLER_0_48
*87 FILLER_0_57
*88 FILLER_0_63
*89 FILLER_0_71
*90 FILLER_0_79
*91 FILLER_1_22
*92 FILLER_1_3
*93 FILLER_1_30
*94 FILLER_1_49
*95 FILLER_1_57
*96 FILLER_1_65
*97 FILLER_1_69
*98 FILLER_2_15
*99 FILLER_2_27
*100 FILLER_2_29
*101 FILLER_2_3
*102 FILLER_2_41
*103 FILLER_2_53
*104 FILLER_2_7
*105 FILLER_2_78
*106 FILLER_3_21
*107 FILLER_3_36
*108 FILLER_3_40
*109 FILLER_3_55
*110 FILLER_3_57
*111 FILLER_3_73
*112 FILLER_4_10
*113 FILLER_4_22
*114 FILLER_4_34
*115 FILLER_4_56
*116 FILLER_4_62
*117 FILLER_4_69
*118 FILLER_5_25
*119 FILLER_5_3
*120 FILLER_5_33
*121 FILLER_5_43
*122 FILLER_5_55
*123 FILLER_5_65
*124 FILLER_5_78
*125 FILLER_6_18
*126 FILLER_6_24
*127 FILLER_6_29
*128 FILLER_6_35
*129 FILLER_6_45
*130 FILLER_6_62
*131 FILLER_6_74
*132 FILLER_7_20
*133 FILLER_7_32
*134 FILLER_7_38
*135 FILLER_7_43
*136 FILLER_7_55
*137 FILLER_7_57
*138 FILLER_7_6
*139 FILLER_7_68
*140 FILLER_7_76
*141 FILLER_8_15
*142 FILLER_8_22
*143 FILLER_8_29
*144 FILLER_8_3
*145 FILLER_8_54
*146 FILLER_8_66
*147 FILLER_8_78
*148 FILLER_9_19
*149 FILLER_9_27
*150 FILLER_9_29
*151 FILLER_9_35
*152 FILLER_9_47
*153 FILLER_9_55
*154 FILLER_9_64
*155 FILLER_9_7
*156 FILLER_9_70
*157 FILLER_9_78
*158 PHY_EDGE_ROW_0_Left_10
*159 PHY_EDGE_ROW_0_Right_0
*160 PHY_EDGE_ROW_1_Left_11
*161 PHY_EDGE_ROW_1_Right_1
*162 PHY_EDGE_ROW_2_Left_12
*163 PHY_EDGE_ROW_2_Right_2
*164 PHY_EDGE_ROW_3_Left_13
*165 PHY_EDGE_ROW_3_Right_3
*166 PHY_EDGE_ROW_4_Left_14
*167 PHY_EDGE_ROW_4_Right_4
*168 PHY_EDGE_ROW_5_Left_15
*169 PHY_EDGE_ROW_5_Right_5
*170 PHY_EDGE_ROW_6_Left_16
*171 PHY_EDGE_ROW_6_Right_6
*172 PHY_EDGE_ROW_7_Left_17
*173 PHY_EDGE_ROW_7_Right_7
*174 PHY_EDGE_ROW_8_Left_18
*175 PHY_EDGE_ROW_8_Right_8
*176 PHY_EDGE_ROW_9_Left_19
*177 PHY_EDGE_ROW_9_Right_9
*178 TAP_TAPCELL_ROW_0_20
*179 TAP_TAPCELL_ROW_0_21
*180 TAP_TAPCELL_ROW_1_22
*181 TAP_TAPCELL_ROW_2_23
*182 TAP_TAPCELL_ROW_3_24
*183 TAP_TAPCELL_ROW_4_25
*184 TAP_TAPCELL_ROW_5_26
*185 TAP_TAPCELL_ROW_6_27
*186 TAP_TAPCELL_ROW_7_28
*187 TAP_TAPCELL_ROW_8_29
*188 TAP_TAPCELL_ROW_9_30
*189 TAP_TAPCELL_ROW_9_31
*190 _047_
*191 _048_
*192 _049_
*193 _050_
*194 _051_
*195 _052_
*196 _053_
*197 _054_
*198 _055_
*199 _056_
*200 _057_
*201 _058_
*202 _059_
*203 _060_
*204 _061_
*205 _062_
*206 _063_
*207 _064_
*208 _065_
*209 _066_
*210 _067_
*211 _068_
*212 _069_
*213 _070_
*214 _071_
*215 _072_
*216 _073_
*217 _074_
*218 _075_
*219 _076_
*220 _077_
*221 _078_
*222 _079_
*223 _080_
*224 _081_
*225 _082_
*226 _083_
*227 _084_
*228 _085_
*229 _086_
*230 _087_
*231 _088_
*232 _089_
*233 _090_
*234 _091_
*235 _092_
*236 _093_
*237 _094_
*238 _095_
*239 _096_
*240 _097_
*241 _098_
*242 _099_
*243 _100_
*244 _101_
*245 input1
*246 input2
*247 input3
*248 input4
*249 input5
*250 input6
*251 input7
*252 input8
*253 output10
*254 output11
*255 output12
*256 output13
*257 output14
*258 output15
*259 output16
*260 output9

*PORTS
A[0] I
A[1] I
A[2] I
A[3] I
B[0] I
B[1] I
B[2] I
B[3] I
P[0] O
P[1] O
P[2] O
P[3] O
P[4] O
P[5] O
P[6] O
P[7] O

*D_NET *1 0.00110402
*CONN
*P A[0] I
*I *245:A I *D sky130_fd_sc_hd__buf_1
*CAP
1 A[0] 0.000501207
2 *245:A 0.000501207
3 *245:A *195:A 6.97409e-05
4 *245:A *246:A 0
5 *245:A *22:14 3.18676e-05
*RES
1 A[0] *245:A 23.7286 
*END

*D_NET *2 0.000890418
*CONN
*P A[1] I
*I *246:A I *D sky130_fd_sc_hd__buf_1
*CAP
1 A[1] 0.000417594
2 *246:A 0.000417594
3 *246:A *195:B 0
4 *246:A *249:A 0
5 *246:A *22:14 5.52302e-05
6 *245:A *246:A 0
*RES
1 A[1] *246:A 21.8357 
*END

*D_NET *3 0.000533492
*CONN
*P A[2] I
*I *247:A I *D sky130_fd_sc_hd__dlymetal6s2s_1
*CAP
1 A[2] 0.000238155
2 *247:A 0.000238155
3 *247:A P[7] 0
4 *247:A *248:A 2.25951e-05
5 *247:A *251:A 3.45861e-05
6 *247:A *252:A 0
7 *247:A *75:10 0
*RES
1 A[2] *247:A 18.73 
*END

*D_NET *4 0.000576861
*CONN
*P A[3] I
*I *248:A I *D sky130_fd_sc_hd__buf_1
*CAP
1 A[3] 0.000262749
2 *248:A 0.000262749
3 *248:A P[7] 2.87684e-05
4 *247:A *248:A 2.25951e-05
*RES
1 A[3] *248:A 20.4803 
*END

*D_NET *5 0.00112957
*CONN
*P B[0] I
*I *249:A I *D sky130_fd_sc_hd__buf_1
*CAP
1 B[0] 0.000476986
2 *249:A 0.000476986
3 *249:A *190:B 9.7049e-06
4 *249:A *250:A 0
5 *249:A *22:14 4.46186e-06
6 *249:A *66:37 9.58181e-05
7 *249:A *77:8 3.21879e-05
8 *249:A *77:16 3.34295e-05
9 *246:A *249:A 0
*RES
1 B[0] *249:A 22.9786 
*END

*D_NET *6 0.00125727
*CONN
*P B[1] I
*I *250:A I *D sky130_fd_sc_hd__buf_1
*CAP
1 B[1] 0.000628634
2 *250:A 0.000628634
3 *250:A *200:A 0
4 *249:A *250:A 0
*RES
1 B[1] *250:A 34.6571 
*END

*D_NET *7 0.000975642
*CONN
*P B[2] I
*I *251:A I *D sky130_fd_sc_hd__buf_1
*CAP
1 B[2] 0.000383976
2 *251:A 0.000383976
3 *251:A *201:A 7.02611e-05
4 *251:A *225:B 3.93346e-05
5 *251:A *252:A 4.18682e-05
6 *251:A *27:6 1.55885e-05
7 *251:A *75:12 0
8 *251:A *79:6 6.05161e-06
9 *247:A *251:A 3.45861e-05
*RES
1 B[2] *251:A 23.6375 
*END

*D_NET *8 0.000631641
*CONN
*P B[3] I
*I *252:A I *D sky130_fd_sc_hd__clkbuf_2
*CAP
1 B[3] 0.000266313
2 *252:A 0.000266313
3 *252:A *224:A 5.71472e-05
4 *247:A *252:A 0
5 *251:A *252:A 4.18682e-05
*RES
1 B[3] *252:A 20.2544 
*END

*D_NET *9 0.000648977
*CONN
*P P[0] O
*I *260:X O *D sky130_fd_sc_hd__buf_2
*CAP
1 P[0] 0.000251091
2 *260:X 0.000251091
3 P[0] P[1] 8.40493e-05
4 P[0] *81:21 6.27457e-05
*RES
1 *260:X P[0] 19.4092 
*END

*D_NET *10 0.000727884
*CONN
*P P[1] O
*I *253:X O *D sky130_fd_sc_hd__buf_2
*CAP
1 P[1] 0.000311018
2 *253:X 0.000311018
3 P[1] *253:A 1.21955e-05
4 P[1] *81:10 9.60337e-06
5 P[0] P[1] 8.40493e-05
*RES
1 *253:X P[1] 18.4832 
*END

*D_NET *11 0.00103762
*CONN
*P P[2] O
*I *254:X O *D sky130_fd_sc_hd__buf_2
*CAP
1 P[2] 0.000447383
2 *254:X 0.000447383
3 P[2] *81:6 0.000142856
*RES
1 *254:X P[2] 22.05 
*END

*D_NET *12 0.000501081
*CONN
*P P[3] O
*I *255:X O *D sky130_fd_sc_hd__buf_2
*CAP
1 P[3] 0.000202418
2 *255:X 0.000202418
3 P[3] P[4] 8.40493e-05
4 P[3] *255:A 1.21955e-05
*RES
1 *255:X P[3] 18.1949 
*END

*D_NET *13 0.00048928
*CONN
*P P[4] O
*I *256:X O *D sky130_fd_sc_hd__buf_2
*CAP
1 P[4] 0.000202616
2 *256:X 0.000202616
3 P[3] P[4] 8.40493e-05
*RES
1 *256:X P[4] 18.1949 
*END

*D_NET *14 0.000951893
*CONN
*P P[5] O
*I *257:X O *D sky130_fd_sc_hd__buf_2
*CAP
1 P[5] 0.000475946
2 *257:X 0.000475946
*RES
1 *257:X P[5] 23.2643 
*END

*D_NET *15 0.0010184
*CONN
*P P[6] O
*I *258:X O *D sky130_fd_sc_hd__buf_2
*CAP
1 P[6] 0.000509199
2 *258:X 0.000509199
*RES
1 *258:X P[6] 23.3893 
*END

*D_NET *16 0.000658898
*CONN
*P P[7] O
*I *259:X O *D sky130_fd_sc_hd__buf_2
*CAP
1 P[7] 0.000294269
2 *259:X 0.000294269
3 P[7] *259:A 4.15914e-05
4 *247:A P[7] 0
5 *248:A P[7] 2.87684e-05
*RES
1 *259:X P[7] 19.4092 
*END

*D_NET *19 0.00197061
*CONN
*I *196:A3 I *D sky130_fd_sc_hd__a31o_1
*I *198:C I *D sky130_fd_sc_hd__and4_1
*I *190:Y O *D sky130_fd_sc_hd__nand2_1
*CAP
1 *196:A3 0.000121379
2 *198:C 2.60213e-05
3 *190:Y 0.000350871
4 *19:12 0.000498271
5 *196:A3 *197:A 5.38444e-06
6 *196:A3 *202:A 3.59876e-05
7 *196:A3 *22:23 5.33005e-05
8 *196:A3 *74:27 0.000165988
9 *198:C *22:14 5.65955e-05
10 *198:C *22:23 8.51331e-05
11 *198:C *74:27 0.000102277
12 *19:12 *196:B1 5.58941e-05
13 *19:12 *66:37 0.000358357
14 *19:12 *77:16 0
15 *19:12 *78:23 2.70899e-05
16 *19:12 *78:29 2.80603e-05
*RES
1 *190:Y *19:12 23.9607 
2 *19:12 *198:C 10.6571 
3 *19:12 *196:A3 11.9071 
*END

*D_NET *20 0.00100817
*CONN
*I *204:A I *D sky130_fd_sc_hd__or4b_2
*I *220:A1 I *D sky130_fd_sc_hd__a21o_1
*I *193:X O *D sky130_fd_sc_hd__and2_1
*CAP
1 *204:A 0.000186485
2 *220:A1 2.97354e-05
3 *193:X 0.000122655
4 *20:8 0.000338875
5 *204:A *194:A 4.43256e-05
6 *204:A *204:C 5.33433e-05
7 *204:A *205:B2 0.000139375
8 *204:A *28:8 0
9 *220:A1 *194:A 5.71472e-05
10 *20:8 *194:A 1.02936e-05
11 *20:8 *220:A2 2.59355e-05
*RES
1 *193:X *20:8 11.0857 
2 *20:8 *220:A1 10.2643 
3 *20:8 *204:A 22.1393 
*END

*D_NET *21 0.00216018
*CONN
*I *205:B2 I *D sky130_fd_sc_hd__a2bb2o_1
*I *200:A I *D sky130_fd_sc_hd__xnor2_1
*I *194:Y O *D sky130_fd_sc_hd__nand2_1
*CAP
1 *205:B2 0.000273848
2 *200:A 0.000452329
3 *194:Y 0
4 *21:6 0.000726177
5 *200:A *200:B 0.000125717
6 *200:A *220:B1 0
7 *200:A *66:56 3.67142e-05
8 *200:A *81:6 0.00010096
9 *205:B2 *204:C 4.16899e-05
10 *205:B2 *204:D_N 5.71472e-05
11 *205:B2 *220:B1 0
12 *205:B2 *28:8 0
13 *205:B2 *29:6 2.14757e-05
14 *205:B2 *30:10 0.000184745
15 *205:B2 *41:12 0
16 *205:B2 *46:12 0
17 *204:A *205:B2 0.000139375
18 *250:A *200:A 0
*RES
1 *194:Y *21:6 13.8 
2 *21:6 *200:A 21.55 
3 *21:6 *205:B2 19.6571 
*END

*D_NET *22 0.00478094
*CONN
*I *204:B I *D sky130_fd_sc_hd__or4b_2
*I *205:A1_N I *D sky130_fd_sc_hd__a2bb2o_1
*I *196:B1 I *D sky130_fd_sc_hd__a31o_1
*I *198:D I *D sky130_fd_sc_hd__and4_1
*I *195:X O *D sky130_fd_sc_hd__and2_1
*CAP
1 *204:B 0.000338885
2 *205:A1_N 0
3 *196:B1 5.02749e-05
4 *198:D 0
5 *195:X 0.000464634
6 *22:44 0.000717935
7 *22:23 0.000528289
8 *22:14 0.000563597
9 *196:B1 *198:A 5.52238e-05
10 *196:B1 *74:27 5.33005e-05
11 *196:B1 *77:16 0
12 *196:B1 *78:29 7.6644e-05
13 *204:B *204:C 0.000274294
14 *204:B *205:A2_N 3.4846e-06
15 *204:B *29:6 9.08883e-05
16 *204:B *30:10 2.47093e-05
17 *22:14 *195:A 5.71472e-05
18 *22:14 *195:B 0
19 *22:14 *208:A 0
20 *22:14 *66:6 8.76257e-05
21 *22:14 *66:28 0.000217141
22 *22:14 *74:10 8.15939e-05
23 *22:14 *74:19 0.000144487
24 *22:14 *74:27 1.10868e-05
25 *22:14 *77:16 0.000180206
26 *22:44 *205:A2_N 7.7159e-06
27 *22:44 *28:8 0
28 *22:44 *30:10 5.09023e-05
29 *22:44 *77:16 0
30 *22:44 *78:29 0.000358387
31 *196:A3 *22:23 5.33005e-05
32 *198:C *22:14 5.65955e-05
33 *198:C *22:23 8.51331e-05
34 *245:A *22:14 3.18676e-05
35 *246:A *22:14 5.52302e-05
36 *249:A *22:14 4.46186e-06
37 *19:12 *196:B1 5.58941e-05
*RES
1 *195:X *22:14 28.2821 
2 *22:14 *198:D 9.3 
3 *22:14 *22:23 5.85714 
4 *22:23 *196:B1 15.3714 
5 *22:23 *22:44 8.23214 
6 *22:44 *205:A1_N 13.8 
7 *22:44 *204:B 19.0679 
*END

*D_NET *23 0.00134435
*CONN
*I *220:A2 I *D sky130_fd_sc_hd__a21o_1
*I *197:A I *D sky130_fd_sc_hd__inv_2
*I *196:X O *D sky130_fd_sc_hd__a31o_1
*CAP
1 *220:A2 0.000208616
2 *197:A 0.000130124
3 *196:X 0
4 *23:4 0.000338741
5 *197:A *199:A 0
6 *197:A *199:B 2.32866e-05
7 *197:A *202:A 3.13687e-05
8 *197:A *209:B 9.60939e-05
9 *197:A *25:10 4.8843e-05
10 *220:A2 *193:B 3.6337e-05
11 *220:A2 *194:A 5.33005e-05
12 *220:A2 *28:8 0.00032893
13 *220:A2 *38:18 1.73875e-05
14 *196:A3 *197:A 5.38444e-06
15 *20:8 *220:A2 2.59355e-05
*RES
1 *196:X *23:4 9.3 
2 *23:4 *197:A 12.3357 
3 *23:4 *220:A2 23.2107 
*END

*D_NET *24 0.000372727
*CONN
*I *199:A I *D sky130_fd_sc_hd__nor2_1
*I *197:Y O *D sky130_fd_sc_hd__inv_2
*CAP
1 *199:A 7.23021e-05
2 *197:Y 7.23021e-05
3 *199:A *199:B 4.24803e-05
4 *199:A *209:B 0.000185643
5 *197:A *199:A 0
*RES
1 *197:Y *199:A 20.7964 
*END

*D_NET *25 0.00216173
*CONN
*I *199:B I *D sky130_fd_sc_hd__nor2_1
*I *220:B1 I *D sky130_fd_sc_hd__a21o_1
*I *198:X O *D sky130_fd_sc_hd__and4_1
*CAP
1 *199:B 0.000110253
2 *220:B1 0.000303716
3 *198:X 0.000341837
4 *25:10 0.000755805
5 *199:B *200:B 5.33005e-05
6 *199:B *202:A 0
7 *199:B *209:B 9.22103e-06
8 *220:B1 *202:B 5.58941e-05
9 *220:B1 *28:8 8.82303e-05
10 *220:B1 *80:59 7.6644e-05
11 *25:10 *198:A 0.000137983
12 *25:10 *202:A 0.000105805
13 *25:10 *74:27 8.43535e-06
14 *197:A *199:B 2.32866e-05
15 *197:A *25:10 4.8843e-05
16 *199:A *199:B 4.24803e-05
17 *200:A *220:B1 0
18 *205:B2 *220:B1 0
*RES
1 *198:X *25:10 14.4964 
2 *25:10 *220:B1 23.8893 
3 *25:10 *199:B 11.8 
*END

*D_NET *26 0.000426632
*CONN
*I *200:B I *D sky130_fd_sc_hd__xnor2_1
*I *199:Y O *D sky130_fd_sc_hd__nor2_1
*CAP
1 *200:B 0.000123807
2 *199:Y 0.000123807
3 *199:B *200:B 5.33005e-05
4 *200:A *200:B 0.000125717
*RES
1 *199:Y *200:B 29.7786 
*END

*D_NET *27 0.00384288
*CONN
*I *206:A_N I *D sky130_fd_sc_hd__nand3b_2
*I *207:B1_N I *D sky130_fd_sc_hd__a21bo_1
*I *241:A1 I *D sky130_fd_sc_hd__a21oi_1
*I *235:C I *D sky130_fd_sc_hd__and3_1
*I *201:Y O *D sky130_fd_sc_hd__nand2_1
*CAP
1 *206:A_N 0.000140398
2 *207:B1_N 0
3 *241:A1 0.000193023
4 *235:C 9.63134e-05
5 *201:Y 0.000338409
6 *27:34 0.000709616
7 *27:10 0.000335528
8 *27:6 0.000953818
9 *206:A_N *206:C 0.000125736
10 *206:A_N *238:A_N 2.27766e-05
11 *235:C *80:102 8.1175e-05
12 *241:A1 *237:A 0
13 *241:A1 *241:A2 4.51691e-05
14 *241:A1 *241:B1 0
15 *241:A1 *60:10 0
16 *241:A1 *61:12 1.19402e-05
17 *241:A1 *76:18 7.6644e-05
18 *241:A1 *76:37 0
19 *241:A1 *80:102 2.39876e-05
20 *27:6 *225:A_N 1.03741e-05
21 *27:6 *225:B 0.000313241
22 *27:6 *225:C 5.52238e-05
23 *27:6 *228:A 7.43578e-06
24 *27:10 *76:37 0
25 *27:10 *80:102 3.76925e-05
26 *27:34 *228:A 7.32955e-05
27 *27:34 *238:A_N 3.41649e-05
28 *27:34 *53:6 0.000141326
29 *251:A *27:6 1.55885e-05
*RES
1 *201:Y *27:6 13.9429 
2 *27:6 *27:10 5.38393 
3 *27:10 *235:C 15.2196 
4 *27:10 *241:A1 17.4161 
5 *27:6 *27:34 7.51786 
6 *27:34 *207:B1_N 9.3 
7 *27:34 *206:A_N 20.8893 
*END

*D_NET *28 0.0021187
*CONN
*I *204:C I *D sky130_fd_sc_hd__or4b_2
*I *205:A2_N I *D sky130_fd_sc_hd__a2bb2o_1
*I *202:Y O *D sky130_fd_sc_hd__nand2_1
*CAP
1 *204:C 0.0001865
2 *205:A2_N 6.7261e-05
3 *202:Y 0.000271429
4 *28:8 0.00052519
5 *204:C *204:D_N 2.44318e-05
6 *204:C *29:6 5.52302e-05
7 *205:A2_N *29:6 9.83388e-05
8 *205:A2_N *30:10 5.3354e-05
9 *28:8 *202:B 5.80706e-06
10 *28:8 *80:59 3.34687e-05
11 *204:A *204:C 5.33433e-05
12 *204:A *28:8 0
13 *204:B *204:C 0.000274294
14 *204:B *205:A2_N 3.4846e-06
15 *205:B2 *204:C 4.16899e-05
16 *205:B2 *28:8 0
17 *220:A2 *28:8 0.00032893
18 *220:B1 *28:8 8.82303e-05
19 *22:44 *205:A2_N 7.7159e-06
20 *22:44 *28:8 0
*RES
1 *202:Y *28:8 20.1482 
2 *28:8 *205:A2_N 15.5589 
3 *28:8 *204:C 18.8268 
*END

*D_NET *29 0.00103763
*CONN
*I *205:B1 I *D sky130_fd_sc_hd__a2bb2o_1
*I *204:D_N I *D sky130_fd_sc_hd__or4b_2
*I *203:X O *D sky130_fd_sc_hd__and2_1
*CAP
1 *205:B1 0
2 *204:D_N 2.97354e-05
3 *203:X 0.000254393
4 *29:6 0.000284128
5 *29:6 *203:A 6.05161e-06
6 *29:6 *30:10 6.45511e-05
7 *29:6 *31:10 5.12608e-05
8 *204:B *29:6 9.08883e-05
9 *204:C *204:D_N 2.44318e-05
10 *204:C *29:6 5.52302e-05
11 *205:A2_N *29:6 9.83388e-05
12 *205:B2 *204:D_N 5.71472e-05
13 *205:B2 *29:6 2.14757e-05
*RES
1 *203:X *29:6 15.175 
2 *29:6 *204:D_N 10.2643 
3 *29:6 *205:B1 9.3 
*END

*D_NET *30 0.00394392
*CONN
*I *229:A I *D sky130_fd_sc_hd__and3_1
*I *231:A1 I *D sky130_fd_sc_hd__a21oi_1
*I *230:A I *D sky130_fd_sc_hd__nand3_1
*I *206:B I *D sky130_fd_sc_hd__nand3b_2
*I *207:A1 I *D sky130_fd_sc_hd__a21bo_1
*I *204:X O *D sky130_fd_sc_hd__or4b_2
*CAP
1 *229:A 0
2 *231:A1 8.92259e-05
3 *230:A 0
4 *206:B 3.98129e-05
5 *207:A1 0
6 *204:X 0.000486487
7 *30:51 0.000235249
8 *30:38 0.000369981
9 *30:19 0.00036393
10 *30:10 0.000586645
11 *231:A1 *229:C 0.000393496
12 *231:A1 *232:B 1.51489e-05
13 *231:A1 *239:A1 5.65955e-05
14 *231:A1 *239:A2 5.49544e-05
15 *231:A1 *239:C1 5.33005e-05
16 *231:A1 *56:6 0.000106803
17 *30:10 *211:C 0
18 *30:10 *31:10 0.000125731
19 *30:19 *206:C 0.000177948
20 *30:19 *31:10 2.31791e-05
21 *30:19 *32:10 0
22 *30:38 *230:C 1.33343e-05
23 *30:38 *231:A2 4.75955e-05
24 *30:38 *32:10 0
25 *30:38 *32:16 1.10868e-05
26 *30:51 *229:B 4.33438e-05
27 *30:51 *239:A1 0.000174687
28 *30:51 *32:10 2.61337e-05
29 *30:51 *32:16 7.09928e-05
30 *204:B *30:10 2.47093e-05
31 *205:A2_N *30:10 5.3354e-05
32 *205:B2 *30:10 0.000184745
33 *22:44 *30:10 5.09023e-05
34 *29:6 *30:10 6.45511e-05
*RES
1 *204:X *30:10 21.6036 
2 *30:10 *207:A1 13.8 
3 *30:10 *30:19 2.55357 
4 *30:19 *206:B 14.3357 
5 *30:19 *30:38 8.96429 
6 *30:38 *230:A 9.3 
7 *30:38 *30:51 12.7143 
8 *30:51 *231:A1 13.1214 
9 *30:51 *229:A 9.3 
*END

*D_NET *31 0.0010948
*CONN
*I *206:C I *D sky130_fd_sc_hd__nand3b_2
*I *207:A2 I *D sky130_fd_sc_hd__a21bo_1
*I *205:X O *D sky130_fd_sc_hd__a2bb2o_1
*CAP
1 *206:C 5.54219e-05
2 *207:A2 5.40583e-05
3 *205:X 0.000161846
4 *31:10 0.000271326
5 *207:A2 *238:A_N 4.82947e-05
6 *206:A_N *206:C 0.000125736
7 *29:6 *31:10 5.12608e-05
8 *30:10 *31:10 0.000125731
9 *30:19 *206:C 0.000177948
10 *30:19 *31:10 2.31791e-05
*RES
1 *205:X *31:10 16.6929 
2 *31:10 *207:A2 14.7464 
3 *31:10 *206:C 16.05 
*END

*D_NET *32 0.00284804
*CONN
*I *216:A I *D sky130_fd_sc_hd__and3_1
*I *217:A1 I *D sky130_fd_sc_hd__a21o_1
*I *229:B I *D sky130_fd_sc_hd__and3_1
*I *230:B I *D sky130_fd_sc_hd__nand3_1
*I *231:A2 I *D sky130_fd_sc_hd__a21oi_1
*I *206:Y O *D sky130_fd_sc_hd__nand3b_2
*CAP
1 *216:A 9.61286e-05
2 *217:A1 0
3 *229:B 0.000155976
4 *230:B 0
5 *231:A2 0.0001589
6 *206:Y 0.00011999
7 *32:45 0.000210656
8 *32:16 0.000401642
9 *32:10 0.00059056
10 *32:6 0.000426359
11 *216:A *216:B 2.65105e-05
12 *216:A *217:B1 0.000144773
13 *229:B *234:B 0
14 *229:B *239:A1 2.89791e-06
15 *231:A2 *230:C 5.71472e-05
16 *231:A2 *239:A1 0
17 *231:A2 *239:A2 6.32633e-05
18 *32:10 *216:B 3.01126e-05
19 *32:10 *234:B 0
20 *32:10 *33:10 1.19402e-05
21 *32:16 *239:A1 0.000137983
22 *32:45 *216:B 1.40415e-05
23 *30:19 *32:10 0
24 *30:38 *231:A2 4.75955e-05
25 *30:38 *32:10 0
26 *30:38 *32:16 1.10868e-05
27 *30:51 *229:B 4.33438e-05
28 *30:51 *32:10 2.61337e-05
29 *30:51 *32:16 7.09928e-05
*RES
1 *206:Y *32:6 11.0679 
2 *32:6 *32:10 8.26786 
3 *32:10 *32:16 7.92857 
4 *32:16 *231:A2 21.6036 
5 *32:16 *230:B 9.3 
6 *32:10 *229:B 16.3536 
7 *32:6 *32:45 1.76786 
8 *32:45 *217:A1 9.3 
9 *32:45 *216:A 11.4786 
*END

*D_NET *33 0.00168726
*CONN
*I *216:B I *D sky130_fd_sc_hd__and3_1
*I *217:A2 I *D sky130_fd_sc_hd__a21o_1
*I *207:X O *D sky130_fd_sc_hd__a21bo_1
*CAP
1 *216:B 0.000277288
2 *217:A2 0
3 *207:X 0.000376958
4 *33:10 0.000654246
5 *216:B *217:B1 3.48705e-05
6 *216:B *41:12 0
7 *216:B *43:10 0.000144773
8 *33:10 *238:A_N 0.000116517
9 *33:10 *41:12 0
10 *216:A *216:B 2.65105e-05
11 *32:10 *216:B 3.01126e-05
12 *32:10 *33:10 1.19402e-05
13 *32:45 *216:B 1.40415e-05
*RES
1 *207:X *33:10 19.2643 
2 *33:10 *217:A2 13.8 
3 *33:10 *216:B 18.2464 
*END

*D_NET *34 0.00487377
*CONN
*I *236:A1 I *D sky130_fd_sc_hd__a21oi_1
*I *210:A I *D sky130_fd_sc_hd__or3b_1
*I *213:A1 I *D sky130_fd_sc_hd__o21bai_1
*I *226:A I *D sky130_fd_sc_hd__xnor2_1
*I *208:X O *D sky130_fd_sc_hd__and4_1
*CAP
1 *236:A1 0.000153909
2 *210:A 0
3 *213:A1 0.000146779
4 *226:A 0
5 *208:X 0.000360034
6 *34:21 0.00113595
7 *34:14 0.00105088
8 *34:10 0.000575654
9 *213:A1 *213:A2 0.000107973
10 *236:A1 *226:B 4.38511e-05
11 *236:A1 *60:10 4.48583e-05
12 *236:A1 *80:40 0
13 *34:10 *208:C 0
14 *34:10 *80:40 0
15 *34:21 *38:18 0.000363709
16 *34:21 *51:10 0.000169373
17 *34:21 *80:59 0.000720802
*RES
1 *208:X *34:10 18.4429 
2 *34:10 *34:14 5.44643 
3 *34:14 *226:A 9.3 
4 *34:14 *34:21 23.5357 
5 *34:21 *213:A1 12.3357 
6 *34:21 *210:A 9.3 
7 *34:10 *236:A1 16.6571 
*END

*D_NET *35 0.00084143
*CONN
*I *210:B I *D sky130_fd_sc_hd__or3b_1
*I *213:A2 I *D sky130_fd_sc_hd__o21bai_1
*I *209:Y O *D sky130_fd_sc_hd__nand2_1
*CAP
1 *210:B 3.31793e-05
2 *213:A2 0.000109217
3 *209:Y 0.000132052
4 *35:8 0.000274448
5 *210:B *210:C_N 1.19402e-05
6 *210:B *36:8 4.1331e-06
7 *210:B *39:8 0
8 *213:A2 *210:C_N 0.000156557
9 *35:8 *210:C_N 1.19309e-05
10 *35:8 *81:21 0
11 *213:A1 *213:A2 0.000107973
*RES
1 *209:Y *35:8 15.7464 
2 *35:8 *213:A2 16.8179 
3 *35:8 *210:B 14.5321 
*END

*D_NET *36 0.00117343
*CONN
*I *219:A1 I *D sky130_fd_sc_hd__a21o_1
*I *214:A I *D sky130_fd_sc_hd__nand3_1
*I *215:B1_N I *D sky130_fd_sc_hd__a21bo_1
*I *210:X O *D sky130_fd_sc_hd__or3b_1
*CAP
1 *219:A1 0.00016559
2 *214:A 2.2002e-05
3 *215:B1_N 0
4 *210:X 7.22471e-05
5 *36:12 4.74787e-05
6 *36:8 0.000263313
7 *214:A *214:B 4.42013e-05
8 *214:A *215:A2 5.71472e-05
9 *219:A1 *219:A2 0
10 *219:A1 *219:B1 0.000148141
11 *219:A1 *39:8 0
12 *219:A1 *40:8 0
13 *36:8 *219:B1 1.02504e-05
14 *36:8 *38:18 0.000125731
15 *36:8 *39:8 0
16 *36:12 *214:B 0.000142856
17 *36:12 *215:A2 7.03393e-05
18 *210:B *36:8 4.1331e-06
*RES
1 *210:X *36:8 15.4429 
2 *36:8 *36:12 5.85714 
3 *36:12 *215:B1_N 9.3 
4 *36:12 *214:A 10.2643 
5 *36:8 *219:A1 16.6929 
*END

*D_NET *37 0.00184627
*CONN
*I *212:A_N I *D sky130_fd_sc_hd__and3b_1
*I *226:B I *D sky130_fd_sc_hd__xnor2_1
*I *236:A2 I *D sky130_fd_sc_hd__a21oi_1
*I *211:X O *D sky130_fd_sc_hd__and4_1
*CAP
1 *212:A_N 0.000127119
2 *226:B 8.50499e-05
3 *236:A2 0.000144846
4 *211:X 0
5 *37:10 0.000489346
6 *37:4 0.000386569
7 *212:A_N *75:28 3.48705e-05
8 *212:A_N *75:41 0.000169717
9 *226:B *60:10 3.34295e-05
10 *226:B *80:40 0
11 *236:A2 *236:B1 2.59355e-05
12 *236:A2 *80:25 4.51611e-05
13 *37:10 *227:B_N 5.03772e-05
14 *37:10 *236:B1 6.05161e-06
15 *37:10 *75:28 6.51275e-05
16 *37:10 *80:25 6.65931e-05
17 *37:10 *80:34 7.22199e-05
18 *236:A1 *226:B 4.38511e-05
*RES
1 *211:X *37:4 9.3 
2 *37:4 *37:10 5.19643 
3 *37:10 *236:A2 11.8 
4 *37:10 *226:B 20.2464 
5 *37:4 *212:A_N 12.3 
*END

*D_NET *38 0.00399387
*CONN
*I *219:B1 I *D sky130_fd_sc_hd__a21o_1
*I *215:A1 I *D sky130_fd_sc_hd__a21bo_1
*I *214:B I *D sky130_fd_sc_hd__nand3_1
*I *212:X O *D sky130_fd_sc_hd__and3b_1
*CAP
1 *219:B1 0.000121688
2 *215:A1 0
3 *214:B 0.000177279
4 *212:X 0.00104251
5 *38:20 0.000177279
6 *38:18 0.00116419
7 *214:B *215:A2 3.53271e-05
8 *219:B1 *40:8 0
9 *219:B1 *41:12 6.80593e-05
10 *38:18 *193:B 9.11048e-06
11 *38:18 *75:52 0.000309819
12 *38:18 *78:29 3.63281e-05
13 *214:A *214:B 4.42013e-05
14 *219:A1 *219:B1 0.000148141
15 *220:A2 *38:18 1.73875e-05
16 *34:21 *38:18 0.000363709
17 *36:8 *219:B1 1.02504e-05
18 *36:8 *38:18 0.000125731
19 *36:12 *214:B 0.000142856
*RES
1 *212:X *38:18 37.6393 
2 *38:18 *38:20 4.5 
3 *38:20 *214:B 13.05 
4 *38:20 *215:A1 9.3 
5 *38:18 *219:B1 16.8893 
*END

*D_NET *39 0.00163538
*CONN
*I *219:A2 I *D sky130_fd_sc_hd__a21o_1
*I *215:A2 I *D sky130_fd_sc_hd__a21bo_1
*I *214:C I *D sky130_fd_sc_hd__nand3_1
*I *213:Y O *D sky130_fd_sc_hd__o21bai_1
*CAP
1 *219:A2 0.000297694
2 *215:A2 0.000258867
3 *214:C 0
4 *213:Y 0.0001212
5 *39:12 0.00031739
6 *39:8 0.000477417
7 *219:A2 *40:8 0
8 *210:B *39:8 0
9 *214:A *215:A2 5.71472e-05
10 *214:B *215:A2 3.53271e-05
11 *219:A1 *219:A2 0
12 *219:A1 *39:8 0
13 *36:8 *39:8 0
14 *36:12 *215:A2 7.03393e-05
*RES
1 *213:Y *39:8 15.7464 
2 *39:8 *39:12 5.44643 
3 *39:12 *214:C 9.3 
4 *39:12 *215:A2 13.9786 
5 *39:8 *219:A2 18.6393 
*END

*D_NET *40 0.00154295
*CONN
*I *243:A1 I *D sky130_fd_sc_hd__a21oi_1
*I *221:A I *D sky130_fd_sc_hd__and3_1
*I *238:D I *D sky130_fd_sc_hd__and4b_1
*I *214:Y O *D sky130_fd_sc_hd__nand3_1
*CAP
1 *243:A1 2.49466e-05
2 *221:A 0
3 *238:D 0.000147777
4 *214:Y 0.000236317
5 *40:25 0.000101655
6 *40:8 0.000460802
7 *238:D *238:C 2.22625e-05
8 *238:D *243:A2 1.33343e-05
9 *238:D *41:12 0
10 *238:D *45:21 0.000119203
11 *238:D *46:23 0.000262382
12 *243:A1 *243:A2 5.52302e-05
13 *243:A1 *243:B1 9.90431e-05
14 *40:8 *41:12 0
15 *40:8 *45:10 0
16 *40:25 *41:12 0
17 *219:A1 *40:8 0
18 *219:A2 *40:8 0
19 *219:B1 *40:8 0
*RES
1 *214:Y *40:8 17.7196 
2 *40:8 *238:D 17.5009 
3 *40:8 *40:25 5.38393 
4 *40:25 *221:A 9.3 
5 *40:25 *243:A1 10.2464 
*END

*D_NET *41 0.00164383
*CONN
*I *216:C I *D sky130_fd_sc_hd__and3_1
*I *217:B1 I *D sky130_fd_sc_hd__a21o_1
*I *215:X O *D sky130_fd_sc_hd__a21bo_1
*CAP
1 *216:C 3.10405e-05
2 *217:B1 4.98384e-05
3 *215:X 0.000355304
4 *41:12 0.000436183
5 *217:B1 *43:10 8.07313e-05
6 *41:12 *239:C1 4.57445e-05
7 *41:12 *42:12 3.69047e-06
8 *41:12 *43:10 3.18676e-05
9 *41:12 *45:10 3.92757e-05
10 *41:12 *46:12 0.000322453
11 *205:B2 *41:12 0
12 *216:A *217:B1 0.000144773
13 *216:B *217:B1 3.48705e-05
14 *216:B *41:12 0
15 *219:B1 *41:12 6.80593e-05
16 *238:D *41:12 0
17 *33:10 *41:12 0
18 *40:8 *41:12 0
19 *40:25 *41:12 0
*RES
1 *215:X *41:12 26.3536 
2 *41:12 *217:B1 11.4786 
3 *41:12 *216:C 9.925 
*END

*D_NET *42 0.00220948
*CONN
*I *218:A_N I *D sky130_fd_sc_hd__and2b_1
*I *233:B1 I *D sky130_fd_sc_hd__a21oi_1
*I *239:A1 I *D sky130_fd_sc_hd__a211o_1
*I *216:X O *D sky130_fd_sc_hd__and3_1
*CAP
1 *218:A_N 0
2 *233:B1 0
3 *239:A1 0.000529604
4 *216:X 0.000130062
5 *42:14 0.000636046
6 *42:12 0.000236503
7 *239:A1 *239:A2 5.28442e-06
8 *239:A1 *56:6 5.49489e-05
9 *42:12 *233:A1 3.17163e-05
10 *42:12 *234:B 0
11 *42:12 *239:C1 8.68665e-05
12 *42:12 *43:10 5.33882e-05
13 *42:14 *218:B 1.39841e-05
14 *42:14 *233:A2 5.52238e-05
15 *229:B *239:A1 2.89791e-06
16 *231:A1 *239:A1 5.65955e-05
17 *231:A2 *239:A1 0
18 *30:51 *239:A1 0.000174687
19 *32:16 *239:A1 0.000137983
20 *41:12 *42:12 3.69047e-06
*RES
1 *216:X *42:12 21.0857 
2 *42:12 *42:14 1.76786 
3 *42:14 *239:A1 27.3179 
4 *42:14 *233:B1 9.3 
5 *42:12 *218:A_N 9.3 
*END

*D_NET *43 0.00101115
*CONN
*I *233:A1 I *D sky130_fd_sc_hd__a21oi_1
*I *218:B I *D sky130_fd_sc_hd__and2b_1
*I *217:X O *D sky130_fd_sc_hd__a21o_1
*CAP
1 *233:A1 1.38756e-05
2 *218:B 0.000127058
3 *217:X 0.000121359
4 *43:10 0.000262293
5 *218:B *233:A2 9.6087e-05
6 *233:A1 *234:B 2.82057e-05
7 *43:10 *234:B 5.80706e-06
8 *43:10 *239:C1 0
9 *216:B *43:10 0.000144773
10 *217:B1 *43:10 8.07313e-05
11 *41:12 *43:10 3.18676e-05
12 *42:12 *233:A1 3.17163e-05
13 *42:12 *43:10 5.33882e-05
14 *42:14 *218:B 1.39841e-05
*RES
1 *217:X *43:10 17.2107 
2 *43:10 *218:B 15.9786 
3 *43:10 *233:A1 14.5321 
*END

*D_NET *44 0.000302581
*CONN
*I *222:A I *D sky130_fd_sc_hd__xor2_1
*I *218:X O *D sky130_fd_sc_hd__and2b_1
*CAP
1 *222:A 9.10585e-05
2 *218:X 9.10585e-05
3 *222:A *222:B 8.47274e-05
4 *222:A *233:A2 3.57366e-05
*RES
1 *218:X *222:A 20.7964 
*END

*D_NET *45 0.00115464
*CONN
*I *243:A2 I *D sky130_fd_sc_hd__a21oi_1
*I *221:B I *D sky130_fd_sc_hd__and3_1
*I *238:C I *D sky130_fd_sc_hd__and4b_1
*I *219:X O *D sky130_fd_sc_hd__a21o_1
*CAP
1 *243:A2 0.000114816
2 *221:B 0
3 *238:C 0.000112204
4 *219:X 5.35369e-05
5 *45:21 0.000259099
6 *45:10 0.000310025
7 *238:C *238:A_N 0
8 *238:C *46:23 2.91451e-05
9 *243:A2 *243:B1 2.07382e-05
10 *243:A2 *244:B 0
11 *243:A2 *46:23 5.7661e-06
12 *238:D *238:C 2.22625e-05
13 *238:D *243:A2 1.33343e-05
14 *238:D *45:21 0.000119203
15 *243:A1 *243:A2 5.52302e-05
16 *40:8 *45:10 0
17 *41:12 *45:10 3.92757e-05
*RES
1 *219:X *45:10 19.3357 
2 *45:10 *238:C 10.9786 
3 *45:10 *45:21 2.17857 
4 *45:21 *221:B 9.3 
5 *45:21 *243:A2 11.9429 
*END

*D_NET *46 0.00261011
*CONN
*I *243:B1 I *D sky130_fd_sc_hd__a21oi_1
*I *221:C I *D sky130_fd_sc_hd__and3_1
*I *238:B I *D sky130_fd_sc_hd__and4b_1
*I *220:X O *D sky130_fd_sc_hd__a21o_1
*CAP
1 *243:B1 0.000225248
2 *221:C 3.46206e-06
3 *238:B 0
4 *220:X 0.000492157
5 *46:23 0.000416351
6 *46:12 0.000679799
7 *243:B1 *244:B 5.30637e-06
8 *46:12 *194:A 2.27416e-05
9 *46:12 *194:B 2.15245e-05
10 *46:23 *238:A_N 3.99614e-06
11 *205:B2 *46:12 0
12 *238:C *46:23 2.91451e-05
13 *238:D *46:23 0.000262382
14 *243:A1 *243:B1 9.90431e-05
15 *243:A2 *243:B1 2.07382e-05
16 *243:A2 *46:23 5.7661e-06
17 *41:12 *46:12 0.000322453
*RES
1 *220:X *46:12 26.1929 
2 *46:12 *238:B 9.3 
3 *46:12 *46:23 4.26786 
4 *46:23 *221:C 9.49643 
5 *46:23 *243:B1 12.7464 
*END

*D_NET *47 0.00207911
*CONN
*I *222:B I *D sky130_fd_sc_hd__xor2_1
*I *233:A2 I *D sky130_fd_sc_hd__a21oi_1
*I *244:A I *D sky130_fd_sc_hd__nor2_1
*I *221:X O *D sky130_fd_sc_hd__and3_1
*CAP
1 *222:B 0.000104522
2 *233:A2 0.000130056
3 *244:A 0.000415326
4 *221:X 3.94474e-05
5 *47:27 0.000349413
6 *47:8 0.000569609
7 *222:B *256:A 0
8 *244:A *255:A 3.92757e-05
9 *47:8 *239:C1 4.15914e-05
10 *47:27 *239:C1 0.000118095
11 *218:B *233:A2 9.6087e-05
12 *222:A *222:B 8.47274e-05
13 *222:A *233:A2 3.57366e-05
14 *42:14 *233:A2 5.52238e-05
*RES
1 *221:X *47:8 14.8357 
2 *47:8 *244:A 28.2643 
3 *47:8 *47:27 7.35714 
4 *47:27 *233:A2 12.2107 
5 *47:27 *222:B 11.4964 
*END

*D_NET *48 0.00046339
*CONN
*I *241:B1 I *D sky130_fd_sc_hd__a21oi_1
*I *223:Y O *D sky130_fd_sc_hd__nand2_1
*CAP
1 *241:B1 0.000196434
2 *223:Y 0.000196434
3 *241:B1 *53:23 0
4 *241:B1 *61:12 7.05216e-05
5 *241:A1 *241:B1 0
*RES
1 *223:Y *241:B1 30.9036 
*END

*D_NET *49 0.00231344
*CONN
*I *225:A_N I *D sky130_fd_sc_hd__and3b_1
*I *227:A_N I *D sky130_fd_sc_hd__and4bb_1
*I *224:X O *D sky130_fd_sc_hd__and4_1
*CAP
1 *225:A_N 0.000310646
2 *227:A_N 7.91604e-05
3 *224:X 0.000305291
4 *49:8 0.000695098
5 *225:A_N *225:B 0.00010938
6 *225:A_N *225:C 1.92789e-05
7 *225:A_N *228:A 4.71374e-05
8 *225:A_N *228:B 0.000104236
9 *225:A_N *79:42 1.08359e-05
10 *225:A_N *80:81 5.75803e-05
11 *227:A_N *228:B 4.33438e-05
12 *227:A_N *51:10 4.25523e-05
13 *227:A_N *79:42 8.91726e-05
14 *49:8 *224:C 3.33341e-05
15 *49:8 *79:42 0.000356022
16 *27:6 *225:A_N 1.03741e-05
*RES
1 *224:X *49:8 18.0321 
2 *49:8 *227:A_N 16.05 
3 *49:8 *225:A_N 20.3179 
*END

*D_NET *50 0.000276517
*CONN
*I *228:A I *D sky130_fd_sc_hd__xor2_1
*I *225:X O *D sky130_fd_sc_hd__and3b_1
*CAP
1 *228:A 7.43243e-05
2 *225:X 7.43243e-05
3 *225:A_N *228:A 4.71374e-05
4 *27:6 *228:A 7.43578e-06
5 *27:34 *228:A 7.32955e-05
*RES
1 *225:X *228:A 20.6893 
*END

*D_NET *51 0.00161723
*CONN
*I *228:B I *D sky130_fd_sc_hd__xor2_1
*I *227:B_N I *D sky130_fd_sc_hd__and4bb_1
*I *226:Y O *D sky130_fd_sc_hd__xnor2_1
*CAP
1 *228:B 0.000181183
2 *227:B_N 2.63024e-05
3 *226:Y 0.000284426
4 *51:10 0.000491911
5 *227:B_N *75:28 9.71197e-05
6 *228:B *211:C 0
7 *228:B *76:37 9.57064e-05