*SPEF "ieee 1481-1999"
*DESIGN "mult4_SarsaNStepsRuido_e9_SarsaNStepsRuido_e9_SARSA_RUIDO_e9_SARSA_RUIDO_e9"
*DATE "12:01:14 Wednesday September 17, 2025"
*VENDOR "The OpenROAD Project"
*PROGRAM "OpenROAD"
*VERSION "edf00dff99f6c40d67a30c0e22a8191c5d2ed9d6"
*DESIGN_FLOW "NAME_SCOPE LOCAL" "PIN_CAP NONE"
*DIVIDER /
*DELIMITER :
*BUS_DELIMITER []
*T_UNIT 1 NS
*C_UNIT 1 PF
*R_UNIT 1 OHM
*L_UNIT 1 HENRY

*NAME_MAP
*1 A[0]
*2 A[1]
*3 A[2]
*4 A[3]
*5 B[0]
*6 B[1]
*7 B[2]
*8 B[3]
*9 net16
*10 P[1]
*11 P[2]
*12 P[3]
*13 P[4]
*14 P[5]
*15 P[6]
*16 P[7]
*19 _000_
*20 _001_
*21 _002_
*22 _003_
*23 _004_
*24 _005_
*25 _006_
*26 _007_
*27 _008_
*28 _009_
*29 _010_
*30 _011_
*31 _012_
*32 _013_
*33 _014_
*34 _015_
*35 _016_
*36 _017_
*37 _018_
*38 _019_
*39 _020_
*40 _021_
*41 _022_
*42 _023_
*43 _024_
*44 _025_
*45 _026_
*46 _027_
*47 _028_
*48 _029_
*49 _030_
*50 _031_
*51 _032_
*52 _033_
*53 _034_
*54 _035_
*55 _036_
*56 _037_
*57 _038_
*58 _039_
*59 _040_
*60 _041_
*61 _042_
*62 _043_
*63 _044_
*64 _045_
*65 _046_
*66 _047_
*67 _048_
*68 _049_
*69 _050_
*70 _051_
*71 _052_
*72 net1
*73 net10
*74 net11
*75 net12
*76 net13
*77 net14
*78 net15
*79 net2
*80 net3
*81 net4
*82 net5
*83 net6
*84 net7
*85 net8
*86 net9
*87 FILLER_0_22
*88 FILLER_0_29
*89 FILLER_0_3
*90 FILLER_0_34
*91 FILLER_0_42
*92 FILLER_0_54
*93 FILLER_0_63
*94 FILLER_0_75
*95 FILLER_1_21
*96 FILLER_1_34
*97 FILLER_1_48
*98 FILLER_1_64
*99 FILLER_1_69
*100 FILLER_2_19
*101 FILLER_2_27
*102 FILLER_2_29
*103 FILLER_2_35
*104 FILLER_2_47
*105 FILLER_2_56
*106 FILLER_3_11
*107 FILLER_3_17
*108 FILLER_3_23
*109 FILLER_3_3
*110 FILLER_3_40
*111 FILLER_3_52
*112 FILLER_3_57
*113 FILLER_3_69
*114 FILLER_3_77
*115 FILLER_4_19
*116 FILLER_4_27
*117 FILLER_4_29
*118 FILLER_4_41
*119 FILLER_4_45
*120 FILLER_4_65
*121 FILLER_4_73
*122 FILLER_5_14
*123 FILLER_5_41
*124 FILLER_5_53
*125 FILLER_5_57
*126 FILLER_5_63
*127 FILLER_5_76
*128 FILLER_6_22
*129 FILLER_6_41
*130 FILLER_6_54
*131 FILLER_6_63
*132 FILLER_6_70
*133 FILLER_6_78
*134 FILLER_7_18
*135 FILLER_7_26
*136 FILLER_7_3
*137 FILLER_7_38
*138 FILLER_7_50
*139 FILLER_7_63
*140 FILLER_7_67
*141 FILLER_7_75
*142 FILLER_7_9
*143 FILLER_8_14
*144 FILLER_8_26
*145 FILLER_8_29
*146 FILLER_8_3
*147 FILLER_8_45
*148 FILLER_8_51
*149 FILLER_8_59
*150 FILLER_8_73
*151 FILLER_9_19
*152 FILLER_9_27
*153 FILLER_9_29
*154 FILLER_9_33
*155 FILLER_9_41
*156 FILLER_9_49
*157 FILLER_9_55
*158 FILLER_9_57
*159 FILLER_9_69
*160 FILLER_9_7
*161 FILLER_9_73
*162 PHY_EDGE_ROW_0_Left_10
*163 PHY_EDGE_ROW_0_Right_0
*164 PHY_EDGE_ROW_1_Left_11
*165 PHY_EDGE_ROW_1_Right_1
*166 PHY_EDGE_ROW_2_Left_12
*167 PHY_EDGE_ROW_2_Right_2
*168 PHY_EDGE_ROW_3_Left_13
*169 PHY_EDGE_ROW_3_Right_3
*170 PHY_EDGE_ROW_4_Left_14
*171 PHY_EDGE_ROW_4_Right_4
*172 PHY_EDGE_ROW_5_Left_15
*173 PHY_EDGE_ROW_5_Right_5
*174 PHY_EDGE_ROW_6_Left_16
*175 PHY_EDGE_ROW_6_Right_6
*176 PHY_EDGE_ROW_7_Left_17
*177 PHY_EDGE_ROW_7_Right_7
*178 PHY_EDGE_ROW_8_Left_18
*179 PHY_EDGE_ROW_8_Right_8
*180 PHY_EDGE_ROW_9_Left_19
*181 PHY_EDGE_ROW_9_Right_9
*182 TAP_TAPCELL_ROW_0_20
*183 TAP_TAPCELL_ROW_0_21
*184 TAP_TAPCELL_ROW_1_22
*185 TAP_TAPCELL_ROW_2_23
*186 TAP_TAPCELL_ROW_3_24
*187 TAP_TAPCELL_ROW_4_25
*188 TAP_TAPCELL_ROW_5_26
*189 TAP_TAPCELL_ROW_6_27
*190 TAP_TAPCELL_ROW_7_28
*191 TAP_TAPCELL_ROW_8_29
*192 TAP_TAPCELL_ROW_9_30
*193 TAP_TAPCELL_ROW_9_31
*194 _053_
*195 _054_
*196 _055_
*197 _056_
*198 _057_
*199 _058_
*200 _059_
*201 _060_
*202 _061_
*203 _062_
*204 _063_
*205 _064_
*206 _065_
*207 _066_
*208 _067_
*209 _068_
*210 _069_
*211 _070_
*212 _071_
*213 _072_
*214 _073_
*215 _074_
*216 _075_
*217 _076_
*218 _077_
*219 _078_
*220 _079_
*221 _080_
*222 _081_
*223 _082_
*224 _083_
*225 _084_
*226 _085_
*227 _086_
*228 _087_
*229 _088_
*230 _089_
*231 _090_
*232 _091_
*233 _092_
*234 _093_
*235 _094_
*236 _095_
*237 _096_
*238 _097_
*239 _098_
*240 _099_
*241 _100_
*242 _101_
*243 _102_
*244 _103_
*245 _104_
*246 _105_
*247 _106_
*248 _107_
*249 _108_
*250 _109_
*251 _110_
*252 _111_
*253 _112_
*254 input1
*255 input2
*256 input3
*257 input4
*258 input5
*259 input6
*260 input7
*261 input8
*262 mult4_SarsaNStepsRuido_e9_SarsaNStepsRuido_e9_SARSA_RUIDO_e9_SARSA_RUIDO_e9_16
*263 output10
*264 output11
*265 output12
*266 output13
*267 output14
*268 output15
*269 output9

*PORTS
A[0] I
A[1] I
A[2] I
A[3] I
B[0] I
B[1] I
B[2] I
B[3] I
P[0] O
P[1] O
P[2] O
P[3] O
P[4] O
P[5] O
P[6] O
P[7] O

*D_NET *1 0.000555935
*CONN
*P A[0] I
*I *254:A I *D sky130_fd_sc_hd__dlymetal6s2s_1
*CAP
1 A[0] 0.000251494
2 *254:A 0.000251494
3 *254:A P[1] 1.5289e-05
4 *254:A P[2] 0
5 *254:A *10:14 1.26232e-05
6 *254:A *72:8 2.50347e-05
*RES
1 A[0] *254:A 47.7832 
*END

*D_NET *2 0.000786791
*CONN
*P A[1] I
*I *255:A I *D sky130_fd_sc_hd__clkbuf_2
*CAP
1 A[1] 0.000365885
2 *255:A 0
3 *2:17 0.000365885
4 *2:17 P[1] 2.43221e-05
5 *2:17 *5:17 2.61329e-05
6 *2:17 *10:14 4.56684e-06
7 *2:17 *79:8 0
8 *2:17 *82:21 0
*RES
1 A[1] *2:17 28.3391 
2 *2:17 *255:A 23 
*END

*D_NET *3 0.00103215
*CONN
*P A[2] I
*I *256:A I *D sky130_fd_sc_hd__clkbuf_2
*CAP
1 A[2] 0.000474203
2 *256:A 0.000474203
3 *256:A *234:A 5.70419e-05
4 *256:A *257:A 0
5 *256:A *80:28 1.03836e-05
6 *256:A *80:43 6.17437e-06
7 *256:A *83:75 1.01436e-05
*RES
1 A[2] *256:A 48.2743 
*END

*D_NET *4 0.000980361
*CONN
*P A[3] I
*I *257:A I *D sky130_fd_sc_hd__clkbuf_2
*CAP
1 A[3] 0.000440938
2 *257:A 0.000440938
3 *257:A *56:6 9.84851e-05
4 *256:A *257:A 0
*RES
1 A[3] *257:A 47.4457 
*END

*D_NET *5 0.000724675
*CONN
*P B[0] I
*I *258:A I *D sky130_fd_sc_hd__clkbuf_2
*CAP
1 B[0] 0.000336204
2 *258:A 0
3 *5:17 0.000336204
4 *5:17 *259:A 2.61329e-05
5 *2:17 *5:17 2.61329e-05
*RES
1 B[0] *5:17 27.6348 
2 *5:17 *258:A 23 
*END

*D_NET *6 0.000624435
*CONN
*P B[1] I
*I *259:A I *D sky130_fd_sc_hd__dlymetal6s2s_1
*CAP
1 B[1] 0.000299151
2 *259:A 0.000299151
3 *5:17 *259:A 2.61329e-05
*RES
1 B[1] *259:A 49.8062 
*END

*D_NET *7 0.000954193
*CONN
*P B[2] I
*I *260:A I *D sky130_fd_sc_hd__clkbuf_2
*CAP
1 B[2] 0.000448906
2 *260:A 0.000448906
3 *260:A *80:54 5.41385e-05
4 *260:A *84:10 2.24366e-06
*RES
1 B[2] *260:A 47.4457 
*END

*D_NET *8 0.000432557
*CONN
*P B[3] I
*I *261:A I *D sky130_fd_sc_hd__dlymetal6s2s_1
*CAP
1 B[3] 0.000175971
2 *261:A 0.000175971
3 *261:A P[7] 8.06147e-05
4 *261:A *71:10 0
*RES
1 B[3] *261:A 47.0789 
*END

*D_NET *9 0.000728341
*CONN
*P P[0] O
*I *262:LO O *D sky130_fd_sc_hd__conb_1
*CAP
1 P[0] 0.00031476
2 *262:LO 0.00031476
3 P[0] P[4] 8.73764e-05
4 P[0] *75:10 1.14452e-05
*RES
1 *262:LO P[0] 48.1267 
*END

*D_NET *10 0.000763907
*CONN
*P P[1] O
*I *269:X O *D sky130_fd_sc_hd__buf_2
*CAP
1 P[1] 7.58295e-05
2 *269:X 0.000277724
3 *10:14 0.000353553
4 *254:A P[1] 1.5289e-05
5 *254:A *10:14 1.26232e-05
6 *2:17 P[1] 2.43221e-05
7 *2:17 *10:14 4.56684e-06
*RES
1 *269:X *10:14 49.9 
2 *10:14 P[1] 0.382667 
*END

*D_NET *11 0.000687209
*CONN
*P P[2] O
*I *263:X O *D sky130_fd_sc_hd__buf_2
*CAP
1 P[2] 0.000343605
2 *263:X 0.000343605
3 P[2] *73:8 0
4 *254:A P[2] 0
*RES
1 *263:X P[2] 48.5734 
*END

*D_NET *12 0.00100219
*CONN
*P P[3] O
*I *264:X O *D sky130_fd_sc_hd__buf_2
*CAP
1 P[3] 0.000501094
2 *264:X 0.000501094
*RES
1 *264:X P[3] 48.9786 
*END

*D_NET *13 0.000697399
*CONN
*P P[4] O
*I *265:X O *D sky130_fd_sc_hd__buf_2
*CAP
1 P[4] 0.000240891
2 *265:X 0.000240891
3 P[4] P[5] 8.73764e-05
4 P[4] *75:10 4.08641e-05
5 P[0] P[4] 8.73764e-05
*RES
1 *265:X P[4] 48.5734 
*END

*D_NET *14 0.000501454
*CONN
*P P[5] O
*I *266:X O *D sky130_fd_sc_hd__buf_2
*CAP
1 P[5] 0.000207039
2 *266:X 0.000207039
3 P[5] P[6] 0
4 P[5] *63:10 0
5 P[4] P[5] 8.73764e-05
*RES
1 *266:X P[5] 47.1648 
*END

*D_NET *15 0.000617023
*CONN
*P P[6] O
*I *267:X O *D sky130_fd_sc_hd__buf_2
*CAP
1 P[6] 0.000247203
2 *267:X 0.000247203
3 P[6] P[7] 8.73764e-05
4 P[6] *77:10 3.52397e-05
5 P[5] P[6] 0
*RES
1 *267:X P[6] 47.8691 
*END

*D_NET *16 0.000692349
*CONN
*P P[7] O
*I *268:X O *D sky130_fd_sc_hd__buf_2
*CAP
1 P[7] 0.000241747
2 *268:X 0.000241747
3 P[7] *68:8 0
4 P[7] *78:10 4.08641e-05
5 P[6] P[7] 8.73764e-05
6 *261:A P[7] 8.06147e-05
*RES
1 *268:X P[7] 48.5734 
*END

*D_NET *19 0.00105147
*CONN
*I *199:A1 I *D sky130_fd_sc_hd__a21o_1
*I *196:B1 I *D sky130_fd_sc_hd__o211a_1
*I *194:Y O *D sky130_fd_sc_hd__nand3_1
*CAP
1 *199:A1 0
2 *196:B1 0.000166635
3 *194:Y 0
4 *19:21 0.000184278
5 *19:4 0.000350913
6 *196:B1 *194:A 0.00010018
7 *196:B1 *194:B 4.47834e-05
8 *196:B1 *196:C1 5.3304e-05
9 *19:21 *24:23 9.57467e-05
10 *19:21 *79:42 0
11 *19:21 *83:60 5.56306e-05
*RES
1 *194:Y *19:4 23 
2 *19:4 *196:B1 26.8736 
3 *19:4 *19:21 34.0186 
4 *19:21 *199:A1 23 
*END

*D_NET *20 0.000828195
*CONN
*I *196:C1 I *D sky130_fd_sc_hd__o211a_1
*I *195:X O *D sky130_fd_sc_hd__a21o_1
*CAP
1 *196:C1 2.32701e-05
2 *195:X 0.000191935
3 *20:10 0.000215205
4 *196:C1 *194:B 5.3304e-05
5 *20:10 *205:A 5.50106e-05
6 *20:10 *24:23 0.000133316
7 *20:10 *79:16 3.34129e-05
8 *20:10 *83:36 6.33614e-05
9 *20:10 *83:47 6.07611e-06
10 *196:B1 *196:C1 5.3304e-05
*RES
1 *195:X *20:10 41.48 
2 *20:10 *196:C1 38.6214 
*END

*D_NET *21 0.002306
*CONN
*I *216:A I *D sky130_fd_sc_hd__nand4_1
*I *218:B1 I *D sky130_fd_sc_hd__a31o_1
*I *199:B1 I *D sky130_fd_sc_hd__a21o_1
*I *197:X O *D sky130_fd_sc_hd__and4_1
*CAP
1 *216:A 0.000278492
2 *218:B1 2.34823e-05
3 *199:B1 2.1727e-05
4 *197:X 6.55153e-05
5 *21:21 0.000746681
6 *21:12 0.000551635
7 *21:8 0.000150717
8 *199:B1 *199:A2 4.00259e-06
9 *216:A *216:B 5.50049e-05
10 *216:A *216:C 4.82164e-05
11 *216:A *216:D 0.000144501
12 *216:A *218:A1 4.69043e-05
13 *218:B1 *216:C 0
14 *21:8 *24:23 0.000114083
15 *21:8 *72:8 0
16 *21:12 *23:10 2.45549e-06
17 *21:21 *199:A2 5.25848e-05
*RES
1 *197:X *21:8 39.5536 
2 *21:8 *21:12 16.0979 
3 *21:12 *199:B1 23.4971 
4 *21:12 *21:21 7.29143 
5 *21:21 *218:B1 23.4971 
6 *21:21 *216:A 28.4064 
*END

*D_NET *22 0.000197131
*CONN
*I *199:A2 I *D sky130_fd_sc_hd__a21o_1
*I *198:Y O *D sky130_fd_sc_hd__nand2_1
*CAP
1 *199:A2 7.02717e-05
2 *198:Y 7.02717e-05
3 *199:B1 *199:A2 4.00259e-06
4 *21:21 *199:A2 5.25848e-05
*RES
1 *198:Y *199:A2 47.595 
*END

*D_NET *23 0.000710125
*CONN
*I *201:A I *D sky130_fd_sc_hd__nand2_1
*I *202:A I *D sky130_fd_sc_hd__or2_1
*I *199:X O *D sky130_fd_sc_hd__a21o_1
*CAP
1 *201:A 7.08081e-05
2 *202:A 0
3 *199:X 0.000173179
4 *23:12 7.08081e-05
5 *23:10 0.000173179
6 *201:A *201:B 5.50106e-05
7 *201:A *202:B 9.67842e-05
8 *23:10 *24:23 6.79006e-05
9 *21:12 *23:10 2.45549e-06
*RES
1 *199:X *23:10 40.8793 
2 *23:10 *23:12 15 
3 *23:12 *202:A 23 
4 *23:12 *201:A 24.5743 
*END

*D_NET *24 0.00304837
*CONN
*I *201:B I *D sky130_fd_sc_hd__nand2_1
*I *202:B I *D sky130_fd_sc_hd__or2_1
*I *205:C I *D sky130_fd_sc_hd__and3_1
*I *200:Y O *D sky130_fd_sc_hd__nand2_1
*CAP
1 *201:B 8.6381e-05
2 *202:B 0.000133695
3 *205:C 1.66483e-05
4 *200:Y 0.0003782
5 *24:23 0.000679815
6 *24:10 0.000854587
7 *205:C *79:16 9.70259e-06
8 *24:10 *205:B 0
9 *24:10 *219:A2 3.02282e-05
10 *24:10 *219:B1 5.67058e-05
11 *24:10 *72:37 2.76611e-06
12 *24:10 *79:20 0
13 *24:10 *82:54 3.40056e-05
14 *24:10 *83:25 7.3564e-05
15 *24:10 *83:36 2.76611e-06
16 *24:23 *72:8 0
17 *24:23 *72:37 3.31683e-05
18 *24:23 *79:42 0
19 *24:23 *83:36 3.95159e-06
20 *24:23 *83:47 8.93489e-05
21 *24:23 *83:60 0
22 *201:A *201:B 5.50106e-05
23 *201:A *202:B 9.67842e-05
24 *19:21 *24:23 9.57467e-05
25 *20:10 *24:23 0.000133316
26 *21:8 *24:23 0.000114083
27 *23:10 *24:23 6.79006e-05
*RES
1 *200:Y *24:10 43.6136 
2 *24:10 *205:C 38.2279 
3 *24:10 *24:23 25.7093 
4 *24:23 *202:B 25.5479 
5 *24:23 *201:B 25.0714 
*END

*D_NET *25 0.000514952
*CONN
*I *203:A I *D sky130_fd_sc_hd__and2_1
*I *201:Y O *D sky130_fd_sc_hd__nand2_1
*CAP
1 *203:A 5.16615e-05
2 *201:Y 9.46184e-05
3 *25:8 0.00014628
4 *203:A *203:B 5.50049e-05
5 *203:A *26:25 5.3304e-05
6 *25:8 *26:8 0.000114083
*RES
1 *201:Y *25:8 39.9057 
2 *25:8 *203:A 39.0979 
*END

*D_NET *26 0.0029931
*CONN
*I *253:A I *D sky130_fd_sc_hd__xnor2_1
*I *227:A I *D sky130_fd_sc_hd__or3_1
*I *203:B I *D sky130_fd_sc_hd__and2_1
*I *202:X O *D sky130_fd_sc_hd__or2_1
*CAP
1 *253:A 0
2 *227:A 2.34823e-05
3 *203:B 0.000111596
4 *202:X 6.90834e-05
5 *26:42 0.000256722
6 *26:25 0.000853414
7 *26:10 0.000684805
8 *26:8 6.90834e-05
9 *227:A *217:A 0
10 *227:A *40:8 0
11 *26:25 *217:A 1.70475e-05
12 *26:25 *226:A 5.56356e-05
13 *26:25 *227:C 5.79559e-05
14 *26:25 *40:8 6.35359e-05
15 *26:25 *45:23 7.12098e-05
16 *26:25 *48:14 5.56356e-05
17 *26:25 *49:10 0.000101762
18 *26:42 *253:B 5.56279e-05
19 *26:42 *40:8 2.4754e-05
20 *26:42 *45:36 2.18409e-05
21 *26:42 *49:10 0.000177513
22 *203:A *203:B 5.50049e-05
23 *203:A *26:25 5.3304e-05
24 *25:8 *26:8 0.000114083
*RES
1 *202:X *26:8 39.5536 
2 *26:8 *26:10 15 
3 *26:10 *203:B 25.0714 
4 *26:10 *26:25 12.5736 
5 *26:25 *227:A 23.4971 
6 *26:25 *26:42 35.1579 
7 *26:42 *253:A 23 
*END

*D_NET *27 0.00477586
*CONN
*I *213:A I *D sky130_fd_sc_hd__xnor2_1
*I *238:A1 I *D sky130_fd_sc_hd__o21a_1
*I *239:A1 I *D sky130_fd_sc_hd__o211a_1
*I *251:A I *D sky130_fd_sc_hd__nand2_1
*I *245:C I *D sky130_fd_sc_hd__and3_1
*I *204:Y O *D sky130_fd_sc_hd__nand2_1
*CAP
1 *213:A 0.000324282
2 *238:A1 0.00017225
3 *239:A1 0
4 *251:A 0
5 *245:C 0
6 *204:Y 4.25104e-05
7 *27:44 0.00017225
8 *27:42 0.000541655
9 *27:35 0.000306219
10 *27:14 0.000632309
11 *27:8 0.000585972
12 *213:A *213:B 0.00056578
13 *213:A *35:19 5.01986e-05
14 *213:A *36:6 2.02872e-05
15 *213:A *61:8 0.00011726
16 *238:A1 *238:A2 3.53115e-05
17 *238:A1 *238:B1 0.000269081
18 *238:A1 *60:6 0.000185434
19 *27:8 *85:23 5.50049e-05
20 *27:14 *204:B 0.00012103
21 *27:14 *252:A1 0
22 *27:14 *80:68 3.55887e-05
23 *27:14 *81:89 1.19796e-05
24 *27:14 *85:12 6.68601e-07
25 *27:14 *85:23 8.06804e-06
26 *27:14 *85:25 0
27 *27:14 *85:53 0
28 *27:35 *204:B 9.10787e-05
29 *27:35 *251:B 5.50106e-05
30 *27:35 *67:10 0.000108377
31 *27:35 *67:16 1.6374e-05
32 *27:35 *71:10 1.32314e-05
33 *27:35 *81:89 0
34 *27:35 *84:77 5.08526e-06
35 *27:42 *252:A1 0
36 *27:42 *35:10 0.000222123
37 *27:42 *35:19 1.14452e-05
38 *27:42 *85:53 0
*RES
1 *204:Y *27:8 38.6214 
2 *27:8 *27:14 20.018 
3 *27:14 *245:C 23 
4 *27:14 *27:35 35.8207 
5 *27:35 *251:A 23 
6 *27:8 *27:42 4.72286 
7 *27:42 *27:44 15 
8 *27:44 *239:A1 23 
9 *27:44 *238:A1 28.5721 
10 *27:42 *213:A 46.7829 
*END

*D_NET *28 0.0032617
*CONN
*I *211:A I *D sky130_fd_sc_hd__nand2_1
*I *212:A I *D sky130_fd_sc_hd__xor2_1
*I *205:X O *D sky130_fd_sc_hd__and3_1
*CAP
1 *211:A 0.000229601
2 *212:A 0
3 *205:X 0.000761332
4 *28:18 0.000990933
5 *211:A *35:10 0.000101848
6 *28:18 *205:B 0.000141954
7 *28:18 *206:A 5.29672e-05
8 *28:18 *210:A1 0.000170583
9 *28:18 *210:B1 7.70392e-05
10 *28:18 *212:B 0.000187069
11 *28:18 *29:6 0.000175229
12 *28:18 *30:14 0.000147357
13 *28:18 *31:6 0.000155209
14 *28:18 *31:23 1.33715e-05
15 *28:18 *72:37 9.24795e-06
16 *28:18 *79:16 4.79641e-05
*RES
1 *205:X *28:18 39.1157 
2 *28:18 *212:A 23 
3 *28:18 *211:A 27.7643 
*END

*D_NET *29 0.00154058
*CONN
*I *210:A1 I *D sky130_fd_sc_hd__a21o_1
*I *209:A1 I *D sky130_fd_sc_hd__a21oi_1
*I *206:Y O *D sky130_fd_sc_hd__nand2_1
*CAP
1 *210:A1 4.06551e-05
2 *209:A1 0
3 *206:Y 8.88409e-05
4 *29:12 0.000154433
5 *29:6 0.000283929
6 *210:A1 *30:14 2.7142e-05
7 *210:A1 *30:22 0.000100069
8 *29:6 *206:B 0.000185428
9 *29:6 *30:22 5.3304e-05
10 *29:6 *72:37 2.4754e-05
11 *29:6 *85:59 1.41129e-05
12 *29:12 *30:22 0.000222104
13 *28:18 *210:A1 0.000170583
14 *28:18 *29:6 0.000175229
*RES
1 *206:Y *29:6 26.48 
2 *29:6 *29:12 32.9621 
3 *29:12 *209:A1 23 
4 *29:6 *210:A1 25.0714 
*END

*D_NET *30 0.00364838
*CONN
*I *218:A1 I *D sky130_fd_sc_hd__a31o_1
*I *216:B I *D sky130_fd_sc_hd__nand4_1
*I *210:A2 I *D sky130_fd_sc_hd__a21o_1
*I *209:A2 I *D sky130_fd_sc_hd__a21oi_1
*I *207:Y O *D sky130_fd_sc_hd__nand3_1
*CAP
1 *218:A1 0.000246544
2 *216:B 4.25104e-05
3 *210:A2 0
4 *209:A2 0
5 *207:Y 0
6 *30:34 0.000437151
7 *30:22 0.000152845
8 *30:14 0.000524261
9 *30:6 0.000519513
10 *218:A1 *216:C 0.000238847
11 *218:A1 *41:10 0.00019063
12 *30:14 *206:B 0
13 *30:14 *84:10 8.4047e-05
14 *30:14 *84:29 0.000211979
15 *30:22 *208:D 2.46906e-05
16 *30:22 *44:10 0.000161121
17 *30:22 *85:59 5.56356e-05
18 *30:34 *207:C 5.46706e-05
19 *30:34 *84:29 3.70094e-05
20 *30:34 *84:48 1.50445e-05
21 *210:A1 *30:14 2.7142e-05
22 *210:A1 *30:22 0.000100069
23 *216:A *216:B 5.50049e-05
24 *216:A *218:A1 4.69043e-05
25 *28:18 *30:14 0.000147357
26 *29:6 *30:22 5.3304e-05
27 *29:12 *30:22 0.000222104
*RES
1 *207:Y *30:6 38 
2 *30:6 *30:14 22.395 
3 *30:14 *30:22 34.8886 
4 *30:22 *209:A2 23 
5 *30:14 *210:A2 23 
6 *30:6 *30:34 2.96214 
7 *30:34 *216:B 38.6214 
8 *30:34 *218:A1 44.1521 
*END

*D_NET *31 0.00232959
*CONN
*I *209:B1 I *D sky130_fd_sc_hd__a21oi_1
*I *236:A I *D sky130_fd_sc_hd__xnor2_1
*I *235:A I *D sky130_fd_sc_hd__nand2_1
*I *210:B1 I *D sky130_fd_sc_hd__a21o_1
*I *208:X O *D sky130_fd_sc_hd__and4_1
*CAP
1 *209:B1 0
2 *236:A 9.37445e-05
3 *235:A 0.000236653
4 *210:B1 4.07626e-05
5 *208:X 0.000145985
6 *31:31 0.000518151
7 *31:23 0.00045383
8 *31:6 0.000452825
9 *235:A *56:12 0
10 *31:23 *32:10 4.48155e-05
11 *31:23 *84:10 9.39056e-05
12 *31:31 *32:10 3.2957e-06
13 *28:18 *210:B1 7.70392e-05
14 *28:18 *31:6 0.000155209
15 *28:18 *31:23 1.33715e-05
*RES
1 *208:X *31:6 25.0507 
2 *31:6 *210:B1 24.2014 
3 *31:6 *31:23 35.2821 
4 *31:23 *31:31 18.5007 
5 *31:31 *235:A 42.0807 
6 *31:31 *236:A 39.5743 
7 *31:23 *209:B1 23 
*END

*D_NET *32 0.00166013
*CONN
*I *211:B I *D sky130_fd_sc_hd__nand2_1
*I *209:Y O *D sky130_fd_sc_hd__a21oi_1
*CAP
1 *211:B 0
2 *209:Y 0.000640608
3 *32:10 0.000640608
4 *32:10 *59:10 0.000164282
5 *32:10 *85:53 0.000166522
6 *31:23 *32:10 4.48155e-05
7 *31:31 *32:10 3.2957e-06
*RES
1 *209:Y *32:10 47.5493 
2 *32:10 *211:B 38 
*END

*D_NET *33 0.00035451
*CONN
*I *212:B I *D sky130_fd_sc_hd__xor2_1
*I *210:X O *D sky130_fd_sc_hd__a21o_1
*CAP
1 *212:B 8.37206e-05
2 *210:X 8.37206e-05
3 *28:18 *212:B 0.000187069
*RES
1 *210:X *212:B 48.0507 
*END

*D_NET *34 0.00137318
*CONN
*I *238:B1 I *D sky130_fd_sc_hd__o21a_1
*I *239:C1 I *D sky130_fd_sc_hd__o211a_1
*I *211:Y O *D sky130_fd_sc_hd__nand2_1
*CAP
1 *238:B1 0.000177523
2 *239:C1 0
3 *211:Y 8.00685e-05
4 *34:10 0.000177523
5 *34:8 8.00685e-05
6 *238:B1 *238:A2 0.000313249
7 *238:B1 *60:6 8.56254e-05
8 *34:8 *35:10 2.26385e-05
9 *34:8 *59:22 2.96154e-05
10 *34:8 *85:53 0.000137788
11 *238:A1 *238:B1 0.000269081
*RES
1 *211:Y *34:8 39.9057 
2 *34:8 *34:10 15 
3 *34:10 *239:C1 23 
4 *34:10 *238:B1 28.9036 
*END

*D_NET *35 0.00306089
*CONN
*I *213:B I *D sky130_fd_sc_hd__xnor2_1
*I *238:A2 I *D sky130_fd_sc_hd__o21a_1
*I *239:A2 I *D sky130_fd_sc_hd__o211a_1
*I *212:X O *D sky130_fd_sc_hd__xor2_1
*CAP
1 *213:B 0.000290675
2 *238:A2 0.000199987
3 *239:A2 0
4 *212:X 0.000283319
5 *35:19 0.000527502
6 *35:10 0.000320159
7 *213:B *36:6 5.50049e-05
8 *213:B *62:8 0
9 *35:10 *59:22 6.16531e-05
10 *35:10 *85:53 0
11 *35:19 *85:53 0
12 *211:A *35:10 0.000101848
13 *213:A *213:B 0.00056578
14 *213:A *35:19 5.01986e-05
15 *238:A1 *238:A2 3.53115e-05
16 *238:B1 *238:A2 0.000313249
17 *27:42 *35:10 0.000222123
18 *27:42 *35:19 1.14452e-05
19 *34:8 *35:10 2.26385e-05
*RES
1 *212:X *35:10 43.9657 
2 *35:10 *239:A2 38 
3 *35:10 *35:19 0.849286 
4 *35:19 *238:A2 42.4329 
5 *35:19 *213:B 45.4779 
*END

*D_NET *36 0.00201074
*CONN
*I *229:A I *D sky130_fd_sc_hd__or2_1
*I *224:A I *D sky130_fd_sc_hd__xnor2_1
*I *242:B1 I *D sky130_fd_sc_hd__a21o_1
*I *243:A I *D sky130_fd_sc_hd__or3_1
*I *213:Y O *D sky130_fd_sc_hd__xnor2_1
*CAP
1 *229:A 5.31887e-05
2 *224:A 0.000130109
3 *242:B1 0
4 *243:A 2.34823e-05
5 *213:Y 0.000170381
6 *36:28 0.000291171
7 *36:19 0.000249267
8 *36:6 0.000335257
9 *224:A *46:17 0.000196677
10 *224:A *50:6 4.95081e-05
11 *224:A *50:10 0.000141052
12 *229:A *228:B 3.22879e-05
13 *229:A *47:12 5.67058e-05
14 *36:6 *241:A_N 1.94812e-05
15 *36:19 *241:A_N 1.76557e-05
16 *36:19 *243:B 8.76088e-05
17 *36:19 *52:12 0
18 *36:28 *243:B 2.95125e-05
19 *36:28 *46:17 5.21024e-05
20 *36:28 *52:12 0
21 *213:A *36:6 2.02872e-05
22 *213:B *36:6 5.50049e-05
*RES
1 *213:Y *36:6 26.0036 
2 *36:6 *243:A 23.4971 
3 *36:6 *36:19 18.2314 
4 *36:19 *242:B1 38 
5 *36:19 *36:28 2.25786 
6 *36:28 *224:A 41.6457 
7 *36:28 *229:A 39.2429 
*END

*D_NET *37 0.00100386
*CONN
*I *216:C I *D sky130_fd_sc_hd__nand4_1
*I *218:A2 I *D sky130_fd_sc_hd__a31o_1
*I *214:X O *D sky130_fd_sc_hd__or2_1
*CAP
1 *216:C 7.07668e-05
2 *218:A2 0
3 *214:X 9.88746e-05
4 *37:10 7.07668e-05
5 *37:8 9.88746e-05
6 *216:C *216:D 0.000144501
7 *37:8 *38:10 0.000136609
8 *37:8 *44:10 9.64022e-05
9 *216:A *216:C 4.82164e-05
10 *218:A1 *216:C 0.000238847
11 *218:B1 *216:C 0
*RES
1 *214:X *37:8 40.61 
2 *37:8 *37:10 15 
3 *37:10 *218:A2 23 
4 *37:10 *216:C 26.0243 
*END

*D_NET *38 0.000882841
*CONN
*I *216:D I *D sky130_fd_sc_hd__nand4_1
*I *218:A3 I *D sky130_fd_sc_hd__a31o_1
*I *215:X O *D sky130_fd_sc_hd__a21o_1
*CAP
1 *216:D 2.77523e-05
2 *218:A3 0
3 *215:X 0.000169389
4 *38:12 2.77523e-05
5 *38:10 0.000169389
6 *38:10 *207:B 6.29456e-05
7 *216:A *216:D 0.000144501
8 *216:C *216:D 0.000144501
9 *37:8 *38:10 0.000136609
*RES
1 *215:X *38:10 41.0036 
2 *38:10 *38:12 15 
3 *38:12 *218:A3 23 
4 *38:12 *216:D 24.5743 
*END

*D_NET *39 0.00229091
*CONN
*I *217:A I *D sky130_fd_sc_hd__inv_2
*I *225:A1 I *D sky130_fd_sc_hd__a21oi_1
*I *222:A I *D sky130_fd_sc_hd__and3_1
*I *216:Y O *D sky130_fd_sc_hd__nand4_1
*CAP
1 *217:A 0.000403013
2 *225:A1 0
3 *222:A 0.000171802
4 *216:Y 0.000170027
5 *39:12 0.00026648
6 *39:8 0.000667718
7 *217:A *40:8 0.000314141
8 *222:A *222:C 6.25714e-05
9 *222:A *225:A2 3.18142e-05
10 *222:A *225:B1 0.000153971
11 *222:A *48:10 1.64208e-05
12 *39:8 *41:10 0
13 *39:8 *44:10 0
14 *39:12 *225:A2 1.59071e-05
15 *227:A *217:A 0
16 *26:25 *217:A 1.70475e-05
*RES
1 *216:Y *39:8 40.61 
2 *39:8 *39:12 16.5743 
3 *39:12 *222:A 27.6193 
4 *39:12 *225:A1 23 
5 *39:8 *217:A 44.3593 
*END

*D_NET *40 0.000973022
*CONN
*I *223:A I *D sky130_fd_sc_hd__nor2_1
*I *217:Y O *D sky130_fd_sc_hd__inv_2
*CAP
1 *223:A 0
2 *217:Y 0.000162123
3 *40:8 0.000162123
4 *40:8 *226:A 5.56356e-05
5 *40:8 *227:C 4.44329e-05
6 *40:8 *45:36 3.33436e-05
7 *40:8 *48:14 5.56356e-05
8 *40:8 *50:6 5.72975e-05
9 *217:A *40:8 0.000314141
10 *227:A *40:8 0
11 *26:25 *40:8 6.35359e-05
12 *26:42 *40:8 2.4754e-05
*RES
1 *217:Y *40:8 28.4064 
2 *40:8 *223:A 23 
*END

*D_NET *41 0.00129012
*CONN
*I *225:A2 I *D sky130_fd_sc_hd__a21oi_1
*I *222:B I *D sky130_fd_sc_hd__and3_1
*I *218:X O *D sky130_fd_sc_hd__a31o_1
*CAP
1 *225:A2 0.000217534
2 *222:B 0
3 *218:X 0.000185442
4 *41:12 0.000217534
5 *41:10 0.000185442
6 *225:A2 *225:B1 0.0001573
7 *41:10 *44:10 8.85189e-05
8 *218:A1 *41:10 0.00019063
9 *222:A *225:A2 3.18142e-05
10 *39:8 *41:10 0
11 *39:12 *225:A2 1.59071e-05
*RES
1 *218:X *41:10 41.2521 
2 *41:10 *41:12 15 
3 *41:12 *222:B 23 
4 *41:12 *225:A2 27.35 
*END

*D_NET *42 0.000149073
*CONN
*I *221:A I *D sky130_fd_sc_hd__nor2_1
*I *219:Y O *D sky130_fd_sc_hd__a22oi_1
*CAP
1 *221:A 3.18537e-05
2 *219:Y 3.18537e-05
3 *221:A *219:B1 7.78318e-05
4 *221:A *219:B2 7.53384e-06
*RES
1 *219:Y *221:A 47.1186 
*END

*D_NET *43 0.000494239
*CONN
*I *221:B I *D sky130_fd_sc_hd__nor2_1
*I *220:X O *D sky130_fd_sc_hd__o211a_1
*CAP
1 *221:B 6.38757e-05
2 *220:X 7.87035e-05
3 *43:8 0.000142579
4 *221:B *219:B1 5.50049e-05
5 *221:B *44:8 1.21972e-05
6 *43:8 *81:32 0.000141879
*RES
1 *220:X *43:8 39.9057 
2 *43:8 *221:B 39.0979 
*END

*D_NET *44 0.0037189
*CONN
*I *222:C I *D sky130_fd_sc_hd__and3_1
*I *225:B1 I *D sky130_fd_sc_hd__a21oi_1
*I *221:Y O *D sky130_fd_sc_hd__nor2_1
*CAP
1 *222:C 0.000115527
2 *225:B1 6.60313e-05
3 *221:Y 0.00044736
4 *44:10 0.000838346
5 *44:8 0.00110415
6 *44:8 *219:B1 2.93747e-05
7 *44:10 *198:A 0
8 *44:10 *214:A 8.46811e-05
9 *44:10 *72:52 0.000201454
10 *44:10 *85:59 9.98995e-05
11 *221:B *44:8 1.21972e-05
12 *222:A *222:C 6.25714e-05
13 *222:A *225:B1 0.000153971
14 *225:A2 *225:B1 0.0001573
15 *30:22 *44:10 0.000161121
16 *37:8 *44:10 9.64022e-05
17 *39:8 *44:10 0
18 *41:10 *44:10 8.85189e-05
*RES
1 *221:Y *44:8 43.8621 
2 *44:8 *44:10 13.1743 
3 *44:10 *225:B1 40.5479 
4 *44:10 *222:C 39.5536 
*END

*D_NET *45 0.00177212
*CONN
*I *223:B I *D sky130_fd_sc_hd__nor2_1
*I *227:B I *D sky130_fd_sc_hd__or3_1
*I *226:A I *D sky130_fd_sc_hd__nor2_1
*I *222:X O *D sky130_fd_sc_hd__and3_1
*CAP
1 *223:B 0
2 *227:B 0
3 *226:A 1.55776e-05
4 *222:X 0.000119693
5 *45:36 0.000322904
6 *45:23 0.000534661
7 *45:8 0.000347028
8 *45:8 *48:10 5.84705e-05
9 *45:23 *48:10 4.2812e-06
10 *45:23 *49:10 5.79559e-05
11 *45:36 *46:6 2.93335e-05
12 *45:36 *49:10 4.21048e-05
13 *45:36 *50:6 2.45032e-06
14 *26:25 *226:A 5.56356e-05
15 *26:25 *45:23 7.12098e-05
16 *26:42 *45:36 2.18409e-05
17 *40:8 *226:A 5.56356e-05
18 *40:8 *45:36 3.33436e-05
*RES
1 *222:X *45:8 39.9057 
2 *45:8 *226:A 38.6214 
3 *45:8 *45:23 18.2521 
4 *45:23 *227:B 23 
5 *45:23 *45:36 34.6814 
6 *45:36 *223:B 23 
*END

*D_NET *46 0.00170787
*CONN
*I *242:A1 I *D sky130_fd_sc_hd__a21o_1
*I *243:B I *D sky130_fd_sc_hd__or3_1
*I *224:B I *D sky130_fd_sc_hd__xnor2_1
*I *223:Y O *D sky130_fd_sc_hd__nor2_1
*CAP
1 *242:A1 0
2 *243:B 9.57231e-05
3 *224:B 0
4 *223:Y 0.000188083
5 *46:17 0.000303318
6 *46:6 0.000395678
7 *243:B *50:34 6.70363e-05
8 *46:6 *50:6 0.000175679
9 *46:17 *50:6 1.22822e-05
10 *46:17 *50:34 7.48331e-05
11 *224:A *46:17 0.000196677
12 *36:19 *243:B 8.76088e-05
13 *36:28 *243:B 2.95125e-05
14 *36:28 *46:17 5.21024e-05
15 *45:36 *46:6 2.93335e-05
*RES
1 *223:Y *46:6 27.9093 
2 *46:6 *224:B 23 
3 *46:6 *46:17 19.785 
4 *46:17 *243:B 40.9621 
5 *46:17 *242:A1 38 
*END

*D_NET *47 0.00092076
*CONN
*I *228:A I *D sky130_fd_sc_hd__nand2_1
*I *224:Y O *D sky130_fd_sc_hd__xnor2_1
*CAP
1 *228:A 0
2 *224:Y 0.000244782
3 *47:12 0.000244782
4 *47:12 *228:B 8.80402e-05
5 *47:12 *230:A 3.22879e-05
6 *47:12 *230:B 1.37232e-05
7 *47:12 *50:10 9.67842e-05
8 *47:12 *52:6 0.000143655
9 *229:A *47:12 5.67058e-05
*RES
1 *224:Y *47:12 28.5721 
2 *47:12 *228:A 23 
*END

*D_NET *48 0.00060388
*CONN
*I *227:C I *D sky130_fd_sc_hd__or3_1
*I *226:B I *D sky130_fd_sc_hd__nor2_1
*I *225:Y O *D sky130_fd_sc_hd__a21oi_1
*CAP
1 *227:C 7.01373e-06
2 *226:B 0
3 *225:Y 0.000132933
4 *48:14 2.25913e-05
5 *48:10 0.00014851
6 *222:A *48:10 1.64208e-05
7 *26:25 *227:C 5.79559e-05
8 *26:25 *48:14 5.56356e-05
9 *40:8 *227:C 4.44329e-05
10 *40:8 *48:14 5.56356e-05
11 *45:8 *48:10 5.84705e-05
12 *45:23 *48:10 4.2812e-06
*RES
1 *225:Y *48:10 40.0818 
2 *48:10 *48:14 15.6214 
3 *48:14 *226:B 23 
4 *48:14 *227:C 23.6214 
*END

*D_NET *49 0.000735118
*CONN
*I *253:B I *D sky130_fd_sc_hd__xnor2_1
*I *226:Y O *D sky130_fd_sc_hd__nor2_1
*CAP
1 *253:B 2.99924e-05
2 *226:Y 0.000120085
3 *49:10 0.000150077
4 *26:25 *49:10 0.000101762
5 *26:42 *253:B 5.56279e-05
6 *26:42 *49:10 0.000177513
7 *45:23 *49:10 5.79559e-05
8 *45:36 *49:10 4.21048e-05
*RES
1 *226:Y *49:10 41.3557 
2 *49:10 *253:B 38.6214 
*END

*D_NET *50 0.00243845
*CONN
*I *242:A2 I *D sky130_fd_sc_hd__a21o_1
*I *228:B I *D sky130_fd_sc_hd__nand2_1
*I *229:B I *D sky130_fd_sc_hd__or2_1
*I *227:X O *D sky130_fd_sc_hd__or3_1
*CAP
1 *242:A2 0
2 *228:B 0.000155362
3 *229:B 0
4 *227:X 0.00046816
5 *50:34 0.000113551
6 *50:10 0.000238887
7 *50:6 0.000665237
8 *224:A *50:6 4.95081e-05
9 *224:A *50:10 0.000141052
10 *229:A *228:B 3.22879e-05
11 *243:B *50:34 6.70363e-05
12 *40:8 *50:6 5.72975e-05
13 *45:36 *50:6 2.45032e-06
14 *46:6 *50:6 0.000175679
15 *46:17 *50:6 1.22822e-05
16 *46:17 *50:34 7.48331e-05
17 *47:12 *228:B 8.80402e-05
18 *47:12 *50:10 9.67842e-05
*RES
1 *227:X *50:6 30.2914 
2 *50:6 *50:10 2.54786 
3 *50:10 *229:B 23 
4 *50:10 *228:B 26.8736 
5 *50:6 *50:34 32.5271 
6 *50:34 *242:A2 23 
*END

*D_NET *51 0.000131848
*CONN
*I *230:A I *D sky130_fd_sc_hd__and2_1
*I *228:Y O *D sky130_fd_sc_hd__nand2_1
*CAP
1 *230:A 4.0952e-05
2 *228:Y 4.0952e-05
3 *230:A *52:6 1.76557e-05
4 *47:12 *230:A 3.22879e-05
*RES
1 *228:Y *230:A 47.0979 
*END

*D_NET *52 0.00194529
*CONN
*I *230:B I *D sky130_fd_sc_hd__and2_1
*I *249:A I *D sky130_fd_sc_hd__and4_1
*I *248:A1 I *D sky130_fd_sc_hd__a31oi_1
*I *229:X O *D sky130_fd_sc_hd__or2_1
*CAP
1 *230:B 7.97063e-05
2 *249:A 0
3 *248:A1 6.66118e-05
4 *229:X 0.000161704
5 *52:12 0.000490808
6 *52:6 0.000665607
7 *248:A1 *248:B1 5.50049e-05
8 *248:A1 *249:C 4.95081e-05
9 *52:12 *241:B 0
10 *52:12 *62:18 0
11 *52:12 *63:10 0.000166522
12 *52:12 *68:8 3.47781e-05
13 *230:A *52:6 1.76557e-05
14 *36:19 *52:12 0
15 *36:28 *52:12 0
16 *47:12 *230:B 1.37232e-05
17 *47:12 *52:6 0.000143655
*RES
1 *229:X *52:6 25.5271 
2 *52:6 *52:12 37.8921 
3 *52:12 *248:A1 24.5743 
4 *52:12 *249:A 23 
5 *52:6 *230:B 24.4707 
*END

*D_NET *53 0.00032332
*CONN
*I *233:B1 I *D sky130_fd_sc_hd__a31o_1
*I *231:Y O *D sky130_fd_sc_hd__a22oi_1
*CAP
1 *233:B1 0
2 *231:Y 9.27661e-05
3 *53:8 9.27661e-05
4 *53:8 *84:77 0.000137788
*RES
1 *231:Y *53:8 39.9057 
2 *53:8 *233:B1 38 
*END

*D_NET *54 0.000295517
*CONN
*I *233:A3 I *D sky130_fd_sc_hd__a31o_1
*I *232:X O *D sky130_fd_sc_hd__or2_1
*CAP
1 *233:A3 4.41216e-05
2 *232:X 4.41216e-05
3 *233:A3 *67:10 0.000103637
4 *233:A3 *80:62 0.000103637
*RES
1 *232:X *233:A3 48.0507 
*END

*D_NET *55 0.00151135
*CONN
*I *237:A I *D sky130_fd_sc_hd__xnor2_1
*I *246:A1 I *D sky130_fd_sc_hd__o21a_1
*I *233:X O *D sky130_fd_sc_hd__a31o_1
*CAP
1 *237:A 0
2 *246:A1 6.68605e-05
3 *233:X 0.000510247
4 *55:8 0.000577108
5 *246:A1 *237:B 5.40337e-05
6 *246:A1 *67:10 1.59071e-05
7 *55:8 *232:B 5.50106e-05
8 *55:8 *59:10 1.39317e-05
9 *55:8 *67:10 3.28216e-05
10 *55:8 *80:62 0.000185434
*RES
1 *233:X *55:8 30.6643 
2 *55:8 *246:A1 24.5743 
3 *55:8 *237:A 23 
*END

*D_NET *56 0.00124482
*CONN
*I *235:B I *D sky130_fd_sc_hd__nand2_1
*I *236:B I *D sky130_fd_sc_hd__xnor2_1
*I *234:X O *D sky130_fd_sc_hd__and4_1
*CAP
1 *235:B 5.33117e-05
2 *236:B 0
3 *234:X 0.000103166
4 *56:12 0.000187784
5 *56:6 0.000344261
6 *235:B *80:54 0.00014196
7 *56:6 *80:54 0.000315852
8 *56:12 *234:D 0
9 *56:12 *81:19 0
10 *235:A *56:12 0
11 *257:A *56:6 9.84851e-05
*RES
1 *234:X *56:6 26.48 
2 *56:6 *56:12 32.9621 
3 *56:12 *236:B 23 
4 *56:6 *235:B 24.5743 
*END

*D_NET *57 0.00106444
*CONN