*SPEF "ieee 1481-1999"
*DESIGN "mult4_SARSA_RUIDO_e9_SarsaNada_e6_SARSA_RUIDO_e9_SARSA_RUIDO_e9"
*DATE "18:41:35 Tuesday September 16, 2025"
*VENDOR "The OpenROAD Project"
*PROGRAM "OpenROAD"
*VERSION "edf00dff99f6c40d67a30c0e22a8191c5d2ed9d6"
*DESIGN_FLOW "NAME_SCOPE LOCAL" "PIN_CAP NONE"
*DIVIDER /
*DELIMITER :
*BUS_DELIMITER []
*T_UNIT 1 NS
*C_UNIT 1 PF
*R_UNIT 1 OHM
*L_UNIT 1 HENRY

*NAME_MAP
*1 A[0]
*2 A[1]
*3 A[2]
*4 A[3]
*5 B[0]
*6 B[1]
*7 B[2]
*8 B[3]
*9 P[0]
*10 P[1]
*11 P[2]
*12 P[3]
*13 P[4]
*14 P[5]
*15 P[6]
*16 P[7]
*19 _000_
*20 _001_
*21 _002_
*22 _003_
*23 _004_
*24 _005_
*25 _006_
*26 _007_
*27 _008_
*28 _009_
*29 _010_
*30 _011_
*31 _012_
*32 _013_
*33 _014_
*34 _015_
*35 _016_
*36 _017_
*37 _018_
*38 _019_
*39 _020_
*40 _021_
*41 _022_
*42 _023_
*43 _024_
*44 _025_
*45 _026_
*46 _027_
*47 _028_
*48 _029_
*49 _030_
*50 _031_
*51 _032_
*52 _033_
*53 _034_
*54 _035_
*55 _036_
*56 _037_
*57 _038_
*58 _039_
*59 _040_
*60 _041_
*61 _042_
*62 _043_
*63 _044_
*64 _045_
*65 _046_
*66 _047_
*67 _048_
*68 net1
*69 net10
*70 net11
*71 net12
*72 net13
*73 net14
*74 net15
*75 net16
*76 net2
*77 net3
*78 net4
*79 net5
*80 net6
*81 net7
*82 net8
*83 net9
*84 FILLER_0_15
*85 FILLER_0_21
*86 FILLER_0_29
*87 FILLER_0_3
*88 FILLER_0_41
*89 FILLER_0_54
*90 FILLER_0_57
*91 FILLER_0_63
*92 FILLER_0_80
*93 FILLER_1_11
*94 FILLER_1_25
*95 FILLER_1_3
*96 FILLER_1_50
*97 FILLER_1_60
*98 FILLER_1_76
*99 FILLER_2_11
*100 FILLER_2_25
*101 FILLER_2_29
*102 FILLER_2_3
*103 FILLER_2_33
*104 FILLER_2_37
*105 FILLER_2_45
*106 FILLER_2_57
*107 FILLER_2_65
*108 FILLER_2_75
*109 FILLER_3_16
*110 FILLER_3_24
*111 FILLER_3_3
*112 FILLER_3_34
*113 FILLER_3_42
*114 FILLER_3_78
*115 FILLER_3_9
*116 FILLER_4_19
*117 FILLER_4_27
*118 FILLER_4_29
*119 FILLER_4_3
*120 FILLER_4_40
*121 FILLER_4_60
*122 FILLER_4_72
*123 FILLER_4_76
*124 FILLER_4_8
*125 FILLER_5_18
*126 FILLER_5_22
*127 FILLER_5_41
*128 FILLER_5_52
*129 FILLER_5_57
*130 FILLER_5_63
*131 FILLER_5_7
*132 FILLER_6_15
*133 FILLER_6_29
*134 FILLER_6_3
*135 FILLER_6_41
*136 FILLER_6_58
*137 FILLER_6_76
*138 FILLER_7_20
*139 FILLER_7_28
*140 FILLER_7_33
*141 FILLER_7_45
*142 FILLER_7_54
*143 FILLER_7_57
*144 FILLER_7_65
*145 FILLER_7_80
*146 FILLER_8_15
*147 FILLER_8_3
*148 FILLER_8_36
*149 FILLER_8_42
*150 FILLER_8_55
*151 FILLER_8_67
*152 FILLER_8_79
*153 FILLER_9_19
*154 FILLER_9_27
*155 FILLER_9_36
*156 FILLER_9_57
*157 FILLER_9_63
*158 FILLER_9_7
*159 FILLER_9_75
*160 PHY_EDGE_ROW_0_Left_10
*161 PHY_EDGE_ROW_0_Right_0
*162 PHY_EDGE_ROW_1_Left_11
*163 PHY_EDGE_ROW_1_Right_1
*164 PHY_EDGE_ROW_2_Left_12
*165 PHY_EDGE_ROW_2_Right_2
*166 PHY_EDGE_ROW_3_Left_13
*167 PHY_EDGE_ROW_3_Right_3
*168 PHY_EDGE_ROW_4_Left_14
*169 PHY_EDGE_ROW_4_Right_4
*170 PHY_EDGE_ROW_5_Left_15
*171 PHY_EDGE_ROW_5_Right_5
*172 PHY_EDGE_ROW_6_Left_16
*173 PHY_EDGE_ROW_6_Right_6
*174 PHY_EDGE_ROW_7_Left_17
*175 PHY_EDGE_ROW_7_Right_7
*176 PHY_EDGE_ROW_8_Left_18
*177 PHY_EDGE_ROW_8_Right_8
*178 PHY_EDGE_ROW_9_Left_19
*179 PHY_EDGE_ROW_9_Right_9
*180 TAP_TAPCELL_ROW_0_20
*181 TAP_TAPCELL_ROW_0_21
*182 TAP_TAPCELL_ROW_1_22
*183 TAP_TAPCELL_ROW_2_23
*184 TAP_TAPCELL_ROW_3_24
*185 TAP_TAPCELL_ROW_4_25
*186 TAP_TAPCELL_ROW_5_26
*187 TAP_TAPCELL_ROW_6_27
*188 TAP_TAPCELL_ROW_7_28
*189 TAP_TAPCELL_ROW_8_29
*190 TAP_TAPCELL_ROW_9_30
*191 TAP_TAPCELL_ROW_9_31
*192 _049_
*193 _050_
*194 _051_
*195 _052_
*196 _053_
*197 _054_
*198 _055_
*199 _056_
*200 _057_
*201 _058_
*202 _059_
*203 _060_
*204 _061_
*205 _062_
*206 _063_
*207 _064_
*208 _065_
*209 _066_
*210 _067_
*211 _068_
*212 _069_
*213 _070_
*214 _071_
*215 _072_
*216 _073_
*217 _074_
*218 _075_
*219 _076_
*220 _077_
*221 _078_
*222 _079_
*223 _080_
*224 _081_
*225 _082_
*226 _083_
*227 _084_
*228 _085_
*229 _086_
*230 _087_
*231 _088_
*232 _089_
*233 _090_
*234 _091_
*235 _092_
*236 _093_
*237 _094_
*238 _095_
*239 _096_
*240 _097_
*241 _098_
*242 _099_
*243 _100_
*244 _101_
*245 _102_
*246 _103_
*247 _104_
*248 _105_
*249 input1
*250 input2
*251 input3
*252 input4
*253 input5
*254 input6
*255 input7
*256 input8
*257 output10
*258 output11
*259 output12
*260 output13
*261 output14
*262 output15
*263 output16
*264 output9

*PORTS
A[0] I
A[1] I
A[2] I
A[3] I
B[0] I
B[1] I
B[2] I
B[3] I
P[0] O
P[1] O
P[2] O
P[3] O
P[4] O
P[5] O
P[6] O
P[7] O

*D_NET *1 0.00156371
*CONN
*P A[0] I
*I *249:A I *D sky130_fd_sc_hd__clkbuf_2
*CAP
1 A[0] 0.000627005
2 *249:A 0.000627005
3 *249:A P[1] 0
4 *249:A *250:A 5.52302e-05
5 *249:A *21:8 4.5821e-05
6 *249:A *68:10 6.69173e-05
7 *249:A *76:10 0.000141729
*RES
1 A[0] *249:A 26.05 
*END

*D_NET *2 0.000887407
*CONN
*P A[1] I
*I *250:A I *D sky130_fd_sc_hd__dlymetal6s2s_1
*CAP
1 A[1] 0.000401633
2 *250:A 0.000401633
3 *250:A *217:A1 0
4 *250:A *68:10 2.89114e-05
5 *249:A *250:A 5.52302e-05
*RES
1 A[1] *250:A 21.8357 
*END

*D_NET *3 0.000581404
*CONN
*P A[2] I
*I *251:A I *D sky130_fd_sc_hd__dlymetal6s2s_1
*CAP
1 A[2] 0.000206254
2 *251:A 0.000206254
3 *251:A P[2] 8.57347e-05
4 *251:A *252:A 8.31618e-05
5 *251:A *82:23 0
6 *251:A *82:34 0
*RES
1 A[2] *251:A 19.3371 
*END

*D_NET *4 0.000507852
*CONN
*P A[3] I
*I *252:A I *D sky130_fd_sc_hd__buf_1
*CAP
1 A[3] 0.000212345
2 *252:A 0.000212345
3 *251:A *252:A 8.31618e-05
*RES
1 A[3] *252:A 18.73 
*END

*D_NET *5 0.00164394
*CONN
*P B[0] I
*I *253:A I *D sky130_fd_sc_hd__buf_1
*CAP
1 B[0] 0.000651659
2 *253:A 0.000651659
3 *253:A *192:A 6.29133e-05
4 *253:A *192:B 3.32009e-05
5 *253:A *193:A 4.22908e-05
6 *253:A *200:A1 1.15281e-05
7 *253:A *200:A2 9.90431e-05
8 *253:A *200:B1 2.27416e-05
9 *253:A *255:A 0
10 *253:A *19:23 9.22103e-06
11 *253:A *25:12 5.52238e-05
12 *253:A *68:37 4.46186e-06
*RES
1 B[0] *253:A 26.3179 
*END

*D_NET *6 0.00189173
*CONN
*P B[1] I
*I *254:A I *D sky130_fd_sc_hd__buf_1
*CAP
1 B[1] 0.000648679
2 *254:A 0.000648679
3 *254:A P[1] 0
4 *254:A *194:B 2.89016e-05
5 *254:A *195:B 0.000148196
6 *254:A *196:C 6.05161e-06
7 *254:A *198:B1_N 7.77751e-05
8 *254:A *255:A 0
9 *254:A *257:A 7.50697e-05
10 *254:A *20:10 0.00010096
11 *254:A *76:23 6.8646e-06
12 *254:A *79:36 9.30093e-05
13 *254:A *80:10 2.05612e-05
14 *254:A *81:10 3.69865e-05
*RES
1 B[1] *254:A 27.3536 
*END

*D_NET *7 0.000931784
*CONN
*P B[2] I
*I *255:A I *D sky130_fd_sc_hd__clkbuf_2
*CAP
1 B[2] 0.000402722
2 *255:A 0.000402722
3 *255:A *68:37 9.90431e-05
4 *255:A *81:10 2.72967e-05
5 *253:A *255:A 0
6 *254:A *255:A 0
*RES
1 B[2] *255:A 21.9429 
*END

*D_NET *8 0.000435234
*CONN
*P B[3] I
*I *256:A I *D sky130_fd_sc_hd__buf_2
*CAP
1 B[3] 0.000136442
2 *256:A 0.000136442
3 *256:A P[0] 7.66163e-05
4 *256:A P[2] 8.57347e-05
5 *256:A *25:12 0
*RES
1 B[3] *256:A 18.1229 
*END

*D_NET *9 0.000509005
*CONN
*P P[0] O
*I *264:X O *D sky130_fd_sc_hd__buf_2
*CAP
1 P[0] 0.000205092
2 *264:X 0.000205092
3 P[0] *264:A 2.22043e-05
4 *256:A P[0] 7.66163e-05
*RES
1 *264:X P[0] 18.1949 
*END

*D_NET *10 0.000898908
*CONN
*P P[1] O
*I *257:X O *D sky130_fd_sc_hd__buf_2
*CAP
1 P[1] 0.000422054
2 *257:X 0.000422054
3 P[1] *76:10 5.48009e-05
4 *249:A P[1] 0
5 *254:A P[1] 0
*RES
1 *257:X P[1] 21.8893 
*END

*D_NET *11 0.000640355
*CONN
*P P[2] O
*I *258:X O *D sky130_fd_sc_hd__buf_2
*CAP
1 P[2] 0.000213647
2 *258:X 0.000213647
3 P[2] *258:A 4.15914e-05
4 P[2] *82:23 0
5 *251:A P[2] 8.57347e-05
6 *256:A P[2] 8.57347e-05
*RES
1 *258:X P[2] 19.4092 
*END

*D_NET *12 0.000725878
*CONN
*P P[3] O
*I *259:X O *D sky130_fd_sc_hd__buf_2
*CAP
1 P[3] 0.000362939
2 *259:X 0.000362939
*RES
1 *259:X P[3] 20.891 
*END

*D_NET *13 0.000702333
*CONN
*P P[4] O
*I *260:X O *D sky130_fd_sc_hd__buf_2
*CAP
1 P[4] 0.000321553
2 *260:X 0.000321553
3 P[4] *260:A 5.92267e-05
*RES
1 *260:X P[4] 19.4813 
*END

*D_NET *14 0.00142954
*CONN
*P P[5] O
*I *261:X O *D sky130_fd_sc_hd__buf_2
*CAP
1 P[5] 0.000668557
2 *261:X 0.000668557
3 P[5] P[7] 0
4 P[5] *261:A 9.24299e-05
*RES
1 *261:X P[5] 27.2107 
*END

*D_NET *15 0.000951893
*CONN
*P P[6] O
*I *262:X O *D sky130_fd_sc_hd__buf_2
*CAP
1 P[6] 0.000475946
2 *262:X 0.000475946
*RES
1 *262:X P[6] 23.2643 
*END

*D_NET *16 0.00129132
*CONN
*P P[7] O
*I *263:X O *D sky130_fd_sc_hd__buf_2
*CAP
1 P[7] 0.000630225
2 *263:X 0.000630225
3 P[7] *263:A 3.08664e-05
4 P[5] P[7] 0
*RES
1 *263:X P[7] 24.6214 
*END

*D_NET *19 0.00157917
*CONN
*I *199:B I *D sky130_fd_sc_hd__and4_1
*I *193:A I *D sky130_fd_sc_hd__inv_2
*I *200:A1 I *D sky130_fd_sc_hd__a22o_1
*I *192:Y O *D sky130_fd_sc_hd__nand2_1
*CAP
1 *199:B 7.83289e-05
2 *193:A 0.000184646
3 *200:A1 0.000241309
4 *192:Y 0
5 *19:23 0.000301072
6 *19:4 0.000279406
7 *193:A *192:A 9.48778e-06
8 *193:A *25:12 2.13884e-05
9 *193:A *79:23 9.25014e-06
10 *199:B *264:A 0
11 *199:B *25:12 6.82922e-05
12 *199:B *79:23 7.6644e-05
13 *200:A1 *192:B 0.000137983
14 *200:A1 *200:A2 4.02462e-05
15 *200:A1 *200:B1 5.59013e-05
16 *200:A1 *200:B2 0
17 *200:A1 *25:12 6.8646e-06
18 *200:A1 *68:37 0
19 *19:23 *192:A 5.30637e-06
20 *253:A *193:A 4.22908e-05
21 *253:A *200:A1 1.15281e-05
22 *253:A *19:23 9.22103e-06
*RES
1 *192:Y *19:4 9.3 
2 *19:4 *200:A1 21.9429 
3 *19:4 *19:23 5.03571 
4 *19:23 *193:A 16.9786 
5 *19:23 *199:B 15.7464 
*END

*D_NET *20 0.0021581
*CONN
*I *199:C I *D sky130_fd_sc_hd__and4_1
*I *200:A2 I *D sky130_fd_sc_hd__a22o_1
*I *194:X O *D sky130_fd_sc_hd__and2_1
*CAP
1 *199:C 5.47865e-05
2 *200:A2 0.00013548
3 *194:X 0.000417765
4 *20:10 0.000608031
5 *199:C *199:A 1.56e-05
6 *199:C *199:D 4.08637e-05
7 *200:A2 *192:B 5.03772e-05
8 *200:A2 *198:A2 0
9 *200:A2 *200:B1 4.53031e-05
10 *200:A2 *25:12 0.000238769
11 *20:10 *198:A1 5.33433e-05
12 *20:10 *198:B1_N 6.4443e-05
13 *20:10 *199:A 2.77173e-05
14 *20:10 *199:D 9.90367e-05
15 *20:10 *200:B1 5.52302e-05
16 *20:10 *79:23 1.11051e-05
17 *200:A1 *200:A2 4.02462e-05
18 *253:A *200:A2 9.90431e-05
19 *254:A *20:10 0.00010096
*RES
1 *194:X *20:10 16.1393 
2 *20:10 *200:A2 22.4071 
3 *20:10 *199:C 10.2464 
*END

*D_NET *21 0.00332274
*CONN
*I *196:A_N I *D sky130_fd_sc_hd__and3b_1
*I *218:B1 I *D sky130_fd_sc_hd__a21o_1
*I *214:A I *D sky130_fd_sc_hd__and3_1
*I *217:B1 I *D sky130_fd_sc_hd__a21oi_1
*I *195:X O *D sky130_fd_sc_hd__and4_1
*CAP
1 *196:A_N 9.26293e-05
2 *218:B1 0
3 *214:A 8.13337e-05
4 *217:B1 0.000134434
5 *195:X 0.000130871
6 *21:25 0.00015338
7 *21:8 0.000879048
8 *21:6 0.000896069
9 *214:A *214:C 0.000132856
10 *214:A *218:A2 0
11 *214:A *37:10 5.33005e-05
12 *217:B1 *217:A1 4.01768e-05
13 *217:B1 *41:10 3.18676e-05
14 *21:6 *257:A 1.74352e-05
15 *21:6 *68:24 6.05161e-06
16 *21:6 *76:10 3.13523e-05
17 *21:8 *217:A1 9.00795e-06
18 *21:8 *68:10 0.000230475
19 *21:8 *76:10 0.000151286
20 *21:25 *217:A1 3.69697e-05
21 *21:25 *217:A2 0.000125724
22 *21:25 *30:14 3.57844e-05
23 *21:25 *41:10 6.8646e-06
24 *249:A *21:8 4.5821e-05
*RES
1 *195:X *21:6 11.0679 
2 *21:6 *21:8 9.16071 
3 *21:8 *217:B1 12.2286 
4 *21:8 *21:25 10.9464 
5 *21:25 *214:A 11.0857 
6 *21:25 *218:B1 9.3 
7 *21:6 *196:A_N 19.6393 
*END

*D_NET *22 0.00465321
*CONN
*I *210:B2 I *D sky130_fd_sc_hd__a2bb2o_1
*I *209:C I *D sky130_fd_sc_hd__nand4b_1
*I *202:A I *D sky130_fd_sc_hd__xnor2_1
*I *197:Y O *D sky130_fd_sc_hd__nand2_1
*CAP
1 *210:B2 2.22847e-05
2 *209:C 0.000202403
3 *202:A 0.000198495
4 *197:Y 8.98869e-05
5 *22:25 0.00134278
6 *22:8 0.00140647
7 *202:A *224:A1 5.52302e-05
8 *209:C *209:D 1.02504e-05
9 *209:C *210:A2_N 0
10 *209:C *210:B1 5.17726e-05
11 *209:C *33:12 0
12 *209:C *44:10 0
13 *22:8 *197:B 0.00010326
14 *22:8 *224:A3 0.000127446
15 *22:8 *224:B1 1.31516e-05
16 *22:8 *77:25 0
17 *22:8 *82:23 1.46624e-05
18 *22:25 *210:A1_N 4.67829e-05
19 *22:25 *210:B1 3.69047e-06
20 *22:25 *231:A 0.000299779
21 *22:25 *29:23 0.000525331
22 *22:25 *55:10 0.000106066
23 *22:25 *77:25 0
24 *22:25 *82:23 3.34672e-05
*RES
1 *197:Y *22:8 16.05 
2 *22:8 *202:A 16.8179 
3 *22:8 *22:25 19.9286 
4 *22:25 *209:C 21.3 
5 *22:25 *210:B2 9.72857 
*END

*D_NET *23 0.00092673
*CONN
*I *199:D I *D sky130_fd_sc_hd__and4_1
*I *200:B1 I *D sky130_fd_sc_hd__a22o_1
*I *198:X O *D sky130_fd_sc_hd__a21bo_1
*CAP
1 *199:D 3.45551e-05
2 *200:B1 0.000164648
3 *198:X 0
4 *23:4 0.000199203
5 *199:D *199:A 6.57815e-05
6 *200:B1 *192:B 5.52238e-05
7 *200:B1 *198:A1 0
8 *200:B1 *198:A2 1.02504e-05
9 *200:B1 *199:A 5.91964e-05
10 *200:B1 *200:B2 1.87955e-05
11 *200:B1 *80:41 0
12 *199:C *199:D 4.08637e-05
13 *200:A1 *200:B1 5.59013e-05
14 *200:A2 *200:B1 4.53031e-05
15 *253:A *200:B1 2.27416e-05
16 *20:10 *199:D 9.90367e-05
17 *20:10 *200:B1 5.52302e-05
*RES
1 *198:X *23:4 9.3 
2 *23:4 *200:B1 22.3536 
3 *23:4 *199:D 10.6571 
*END

*D_NET *24 0.000732609
*CONN
*I *224:B1 I *D sky130_fd_sc_hd__a31o_1
*I *201:A_N I *D sky130_fd_sc_hd__and2b_1
*I *199:X O *D sky130_fd_sc_hd__and4_1
*CAP
1 *224:B1 4.86272e-05
2 *201:A_N 0
3 *199:X 6.2876e-05
4 *24:8 0.000111503
5 *224:B1 *197:B 0.000140375
6 *224:B1 *82:23 0.000177234
7 *24:8 *197:B 3.51442e-05
8 *24:8 *198:A2 2.56601e-05
9 *24:8 *25:12 3.48139e-05
10 *24:8 *80:41 0
11 *24:8 *82:23 8.32242e-05
12 *22:8 *224:B1 1.31516e-05
*RES
1 *199:X *24:8 15.7464 
2 *24:8 *201:A_N 13.8 
3 *24:8 *224:B1 16.05 
*END

*D_NET *25 0.00192733
*CONN
*I *201:B I *D sky130_fd_sc_hd__and2b_1
*I *224:A3 I *D sky130_fd_sc_hd__a31o_1
*I *200:X O *D sky130_fd_sc_hd__a22o_1
*CAP
1 *201:B 2.99477e-05
2 *224:A3 0.000231575
3 *200:X 0.000325408
4 *25:12 0.000586931
5 *201:B *82:6 1.15281e-05
6 *224:A3 *197:A 7.43578e-06
7 *224:A3 *197:B 1.18064e-05
8 *224:A3 *198:A2 4.30382e-05
9 *224:A3 *224:A1 0
10 *224:A3 *77:25 9.69119e-06
11 *224:A3 *82:6 1.07719e-05
12 *25:12 *198:A2 0
13 *25:12 *68:37 0
14 *25:12 *82:23 0.000106403
15 *193:A *25:12 2.13884e-05
16 *199:B *25:12 6.82922e-05
17 *200:A1 *25:12 6.8646e-06
18 *200:A2 *25:12 0.000238769
19 *253:A *25:12 5.52238e-05
20 *256:A *25:12 0
21 *22:8 *224:A3 0.000127446
22 *24:8 *25:12 3.48139e-05
*RES
1 *200:X *25:12 25.0321 
2 *25:12 *224:A3 22.425 
3 *25:12 *201:B 9.83571 
*END

*D_NET *26 0.000186505
*CONN
*I *202:B I *D sky130_fd_sc_hd__xnor2_1
*I *201:X O *D sky130_fd_sc_hd__and2b_1
*CAP
1 *202:B 9.32525e-05
2 *201:X 9.32525e-05
3 *202:B *82:23 0
*RES
1 *201:X *202:B 29.2429 
*END

*D_NET *27 0.00152203
*CONN
*I *204:A I *D sky130_fd_sc_hd__inv_2
*I *241:C I *D sky130_fd_sc_hd__and3_1
*I *203:Y O *D sky130_fd_sc_hd__nand2_1
*CAP
1 *204:A 0.000242529
2 *241:C 0.000166844
3 *203:Y 0
4 *27:4 0.000409373
5 *204:A *203:B 2.28499e-05
6 *204:A *229:B 1.02936e-05
7 *204:A *241:B 4.1331e-06
8 *204:A *77:67 0
9 *204:A *78:22 0.000142856
10 *204:A *78:50 4.25716e-05
11 *241:C *203:A 2.6777e-05
12 *241:C *241:A 8.32317e-05
13 *241:C *28:16 0.000170872
14 *241:C *54:10 4.78056e-05
15 *241:C *81:55 1.55002e-05
16 *241:C *82:40 9.71197e-05
17 *241:C *82:57 3.92757e-05
*RES
1 *203:Y *27:4 9.3 
2 *27:4 *241:C 22.2107 
3 *27:4 *204:A 22.1214 
*END

*D_NET *28 0.00314021
*CONN
*I *245:A1 I *D sky130_fd_sc_hd__o311a_1
*I *212:B1 I *D sky130_fd_sc_hd__a21o_1
*I *236:A1 I *D sky130_fd_sc_hd__a21bo_1
*I *211:A I *D sky130_fd_sc_hd__nand3_1
*I *204:Y O *D sky130_fd_sc_hd__inv_2
*CAP
1 *245:A1 0
2 *212:B1 0
3 *236:A1 0
4 *211:A 0.000105924
5 *204:Y 0.000147446
6 *28:18 0.000169858
7 *28:16 0.000384133
8 *28:8 0.000467645
9 *211:A *211:B 5.33005e-05
10 *211:A *211:C 0.00014183
11 *211:A *239:B1 0.00018077
12 *211:A *33:23 1.60597e-05
13 *211:A *34:23 2.74192e-05
14 *211:A *48:16 7.32955e-05
15 *28:8 *241:B 0.000172688
16 *28:8 *245:C1 0
17 *28:8 *56:6 0.000227532
18 *28:8 *82:40 1.74903e-05
19 *28:16 *241:A 5.35679e-05
20 *28:16 *241:B 0.000200017
21 *28:16 *34:12 2.38651e-06
22 *28:16 *36:12 8.25218e-05
23 *28:16 *82:40 2.28598e-05
24 *28:18 *34:23 0.000313468
25 *28:18 *48:16 0.000109128
26 *241:C *28:16 0.000170872
*RES
1 *204:Y *28:8 13.0321 
2 *28:8 *28:16 16.3036 
3 *28:16 *28:18 3 
4 *28:18 *211:A 13.1571 
5 *28:18 *236:A1 9.3 
6 *28:16 *212:B1 9.3 
7 *28:8 *245:A1 9.3 
*END

*D_NET *29 0.00254051
*CONN
*I *231:A I *D sky130_fd_sc_hd__and2_1
*I *232:A I *D sky130_fd_sc_hd__xnor2_1
*I *210:A1_N I *D sky130_fd_sc_hd__a2bb2o_1
*I *205:X O *D sky130_fd_sc_hd__and4_1
*CAP
1 *231:A 7.56717e-05
2 *232:A 2.82248e-05
3 *210:A1_N 3.81168e-05
4 *205:X 0.000275195
5 *29:23 0.00030073
6 *29:12 0.000510146
7 *210:A1_N *34:12 3.69047e-06
8 *231:A *231:B 5.77148e-05
9 *231:A *232:B 9.02232e-05
10 *231:A *55:10 1.74352e-05
11 *232:A *231:B 0
12 *232:A *232:B 1.32387e-05
13 *232:A *54:10 1.7376e-05
14 *29:12 *207:B 5.71472e-05
15 *29:12 *209:D 0
16 *29:12 *210:A2_N 5.01142e-05
17 *29:12 *31:14 0.000123284
18 *29:12 *82:57 0
19 *29:23 *34:12 1.03105e-05
20 *22:25 *210:A1_N 4.67829e-05
21 *22:25 *231:A 0.000299779
22 *22:25 *29:23 0.000525331
*RES
1 *205:X *29:12 23.5143 
2 *29:12 *210:A1_N 10.2464 
3 *29:12 *29:23 5.48214 
4 *29:23 *232:A 10.3893 
5 *29:23 *231:A 12.7286 
*END

*D_NET *30 0.00313583
*CONN
*I *209:D I *D sky130_fd_sc_hd__nand4b_1
*I *218:A1 I *D sky130_fd_sc_hd__a21o_1
*I *214:B I *D sky130_fd_sc_hd__and3_1
*I *217:A1 I *D sky130_fd_sc_hd__a21oi_1
*I *206:Y O *D sky130_fd_sc_hd__nand4_2
*CAP
1 *209:D 0.00024086
2 *218:A1 0
3 *214:B 0.000234708
4 *217:A1 0.000264489
5 *206:Y 0.000123975
6 *30:14 0.000592826
7 *30:10 0.000353149
8 *30:8 0.000624355
9 *209:D *213:B1 7.6644e-05
10 *209:D *31:14 0
11 *209:D *44:10 0
12 *209:D *76:71 0
13 *209:D *82:72 0
14 *214:B *214:C 8.64824e-05
15 *214:B *37:10 6.42095e-05
16 *217:A1 *217:A2 2.6949e-05
17 *217:A1 *68:10 0
18 *30:8 *213:A1 0.000120721
19 *30:8 *213:B2 1.93525e-05
20 *30:10 *213:A1 9.80173e-05
21 *30:10 *213:A2 1.74352e-05
22 *30:10 *37:8 4.01768e-05
23 *30:10 *37:10 1.92905e-05
24 *30:14 *213:B1 0
25 *30:14 *220:A2 0
26 *30:14 *41:10 0
27 *30:14 *68:81 0
28 *209:C *209:D 1.02504e-05
29 *217:B1 *217:A1 4.01768e-05
30 *250:A *217:A1 0
31 *21:8 *217:A1 9.00795e-06
32 *21:25 *217:A1 3.69697e-05
33 *21:25 *30:14 3.57844e-05
34 *29:12 *209:D 0
*RES
1 *206:Y *30:8 11.3893 
2 *30:8 *30:10 3.41071 
3 *30:10 *30:14 6.14286 
4 *30:14 *217:A1 18.1214 
5 *30:14 *214:B 16.8 
6 *30:10 *218:A1 9.3 
7 *30:8 *209:D 22.675 
*END

*D_NET *31 0.00129182
*CONN
*I *210:A2_N I *D sky130_fd_sc_hd__a2bb2o_1
*I *209:A_N I *D sky130_fd_sc_hd__nand4b_1
*I *207:Y O *D sky130_fd_sc_hd__nand2_1
*CAP
1 *210:A2_N 9.63392e-05
2 *209:A_N 3.91258e-05
3 *207:Y 0.000254545
4 *31:14 0.00039001
5 *209:A_N *209:B 5.65955e-05
6 *209:A_N *32:6 0.000128523
7 *209:A_N *40:6 6.51826e-05
8 *210:A2_N *210:B1 4.43184e-05
9 *31:14 *207:A 1.13883e-05
10 *31:14 *207:B 3.23989e-05
11 *209:C *210:A2_N 0
12 *209:D *31:14 0
13 *29:12 *210:A2_N 5.01142e-05
14 *29:12 *31:14 0.000123284
*RES
1 *207:Y *31:14 18.175 
2 *31:14 *209:A_N 15.5679 
3 *31:14 *210:A2_N 16.05 
*END

*D_NET *32 0.00142517
*CONN
*I *210:B1 I *D sky130_fd_sc_hd__a2bb2o_1
*I *209:B I *D sky130_fd_sc_hd__nand4b_1
*I *208:X O *D sky130_fd_sc_hd__and2_1
*CAP
1 *210:B1 0.00015375
2 *209:B 9.89416e-05
3 *208:X 0.000258443
4 *32:6 0.000511135
5 *209:B *40:6 3.41304e-05
6 *210:B1 *33:12 0
7 *32:6 *40:6 8.38662e-05
8 *209:A_N *209:B 5.65955e-05
9 *209:A_N *32:6 0.000128523
10 *209:C *210:B1 5.17726e-05
11 *210:A2_N *210:B1 4.43184e-05
12 *22:25 *210:B1 3.69047e-06
*RES
1 *208:X *32:6 13.9429 
2 *32:6 *209:B 11.0679 
3 *32:6 *210:B1 21.0857 
*END

*D_NET *33 0.00243631
*CONN
*I *212:A1 I *D sky130_fd_sc_hd__a21o_1
*I *236:B1_N I *D sky130_fd_sc_hd__a21bo_1
*I *211:B I *D sky130_fd_sc_hd__nand3_1
*I *209:Y O *D sky130_fd_sc_hd__nand4b_1
*CAP
1 *212:A1 0.00015536
2 *236:B1_N 0
3 *211:B 2.66909e-05
4 *209:Y 0.000253736
5 *33:23 0.000457643
6 *33:12 0.000582709
7 *212:A1 *34:23 0.00021261
8 *33:12 *239:B1 2.61337e-05
9 *33:12 *40:6 1.1979e-05
10 *33:12 *44:10 0.000340052
11 *33:23 *211:C 6.87574e-05
12 *33:23 *34:23 0.000231277
13 *209:C *33:12 0
14 *210:B1 *33:12 0
15 *211:A *211:B 5.33005e-05
16 *211:A *33:23 1.60597e-05
*RES
1 *209:Y *33:12 23.6214 
2 *33:12 *211:B 9.83571 
3 *33:12 *33:23 4.55357 
4 *33:23 *236:B1_N 9.3 
5 *33:23 *212:A1 11.4786 
*END

*D_NET *34 0.0017332
*CONN
*I *236:A2 I *D sky130_fd_sc_hd__a21bo_1
*I *211:C I *D sky130_fd_sc_hd__nand3_1
*I *212:A2 I *D sky130_fd_sc_hd__a21o_1
*I *210:X O *D sky130_fd_sc_hd__a2bb2o_1
*CAP
1 *236:A2 0
2 *211:C 2.88824e-05
3 *212:A2 0
4 *210:X 0.000173151
5 *34:23 0.000169646
6 *34:12 0.000313914
7 *34:23 *48:16 3.58616e-05
8 *210:A1_N *34:12 3.69047e-06
9 *211:A *211:C 0.00014183
10 *211:A *34:23 2.74192e-05
11 *212:A1 *34:23 0.00021261
12 *28:16 *34:12 2.38651e-06
13 *28:18 *34:23 0.000313468
14 *29:23 *34:12 1.03105e-05
15 *33:23 *211:C 6.87574e-05
16 *33:23 *34:23 0.000231277
*RES
1 *210:X *34:12 20.7821 
2 *34:12 *212:A2 9.3 
3 *34:12 *34:23 5.5 
4 *34:23 *211:C 10.6571 
5 *34:23 *236:A2 9.3 
*END

*D_NET *35 0.000415803
*CONN
*I *221:A I *D sky130_fd_sc_hd__and3_1
*I *222:A1 I *D sky130_fd_sc_hd__a21o_1
*I *211:Y O *D sky130_fd_sc_hd__nand3_1
*CAP
1 *221:A 0
2 *222:A1 2.49643e-05
3 *211:Y 6.66273e-05
4 *35:10 9.15917e-05
5 *222:A1 *222:A2 5.52238e-05
6 *222:A1 *222:B1 9.90367e-05
7 *35:10 *240:B1 0
8 *35:10 *44:10 7.83587e-05
*RES
1 *211:Y *35:10 19.6393 
2 *35:10 *222:A1 10.2464 
3 *35:10 *221:A 9.3 
*END

*D_NET *36 0.00167788
*CONN
*I *221:B I *D sky130_fd_sc_hd__and3_1
*I *222:A2 I *D sky130_fd_sc_hd__a21o_1
*I *212:X O *D sky130_fd_sc_hd__a21o_1
*CAP
1 *221:B 0
2 *222:A2 0.000113088
3 *212:X 0.000513759
4 *36:12 0.000626848
5 *222:A2 *221:C 2.89114e-05
6 *222:A2 *222:B1 1.98839e-05
7 *36:12 *221:C 9.04073e-07
8 *36:12 *237:B 0
9 *36:12 *239:B1 0
10 *36:12 *45:10 0.000236741
11 *222:A1 *222:A2 5.52238e-05
12 *28:16 *36:12 8.25218e-05
*RES
1 *212:X *36:12 25.9964 
2 *36:12 *222:A2 11.6929 
3 *36:12 *221:B 9.3 
*END

*D_NET *37 0.00134268
*CONN
*I *218:A2 I *D sky130_fd_sc_hd__a21o_1
*I *217:A2 I *D sky130_fd_sc_hd__a21oi_1
*I *214:C I *D sky130_fd_sc_hd__and3_1
*I *213:X O *D sky130_fd_sc_hd__a22o_1
*CAP
1 *218:A2 1.24159e-05
2 *217:A2 0.000118687
3 *214:C 0.000102313
4 *213:X 5.2711e-05
5 *37:10 0.000297879
6 *37:8 0.000142006
7 *217:A2 *41:10 6.19181e-05
8 *218:A2 *213:A2 0
9 *37:8 *213:A2 5.7661e-06
10 *214:A *214:C 0.000132856
11 *214:A *218:A2 0
12 *214:A *37:10 5.33005e-05
13 *214:B *214:C 8.64824e-05
14 *214:B *37:10 6.42095e-05
15 *217:A1 *217:A2 2.6949e-05
16 *21:25 *217:A2 0.000125724
17 *30:10 *37:8 4.01768e-05
18 *30:10 *37:10 1.92905e-05
*RES
1 *213:X *37:8 10.675 
2 *37:8 *37:10 1.76786 
3 *37:10 *214:C 11.9964 
4 *37:10 *217:A2 20.8536 
5 *37:8 *218:A2 9.72857 
*END

*D_NET *38 0.00135882
*CONN
*I *225:A1 I *D sky130_fd_sc_hd__o21bai_1
*I *219:A I *D sky130_fd_sc_hd__or3b_1
*I *220:B1 I *D sky130_fd_sc_hd__a21o_1
*I *214:X O *D sky130_fd_sc_hd__and3_1
*CAP
1 *225:A1 0.000147447
2 *219:A 0
3 *220:B1 0.000264466
4 *214:X 0.000118288
5 *38:10 0.000264466
6 *38:8 0.000265735
7 *220:B1 *219:B 1.15172e-05
8 *220:B1 *219:C_N 5.45614e-05
9 *225:A1 *225:A2 5.52302e-05
10 *225:A1 *41:10 0
11 *225:A1 *43:10 0.000148196
12 *225:A1 *49:10 2.89114e-05
13 *38:8 *41:10 0
*RES
1 *214:X *38:8 15.4429 
2 *38:8 *38:10 4.5 
3 *38:10 *220:B1 13.5679 
4 *38:10 *219:A 9.3 
5 *38:8 *225:A1 17.1929 
*END

*D_NET *39 0.00162293
*CONN
*I *216:A_N I *D sky130_fd_sc_hd__and3b_1
*I *231:B I *D sky130_fd_sc_hd__and2_1
*I *232:B I *D sky130_fd_sc_hd__xnor2_1
*I *215:X O *D sky130_fd_sc_hd__and4_1
*CAP
1 *216:A_N 0.000226938
2 *231:B 3.71103e-05
3 *232:B 4.59357e-05
4 *215:X 0
5 *39:10 0.000203675
6 *39:4 0.000347567
7 *216:A_N *215:D 0
8 *216:A_N *224:A1 5.33005e-05
9 *216:A_N *48:16 5.33334e-05
10 *216:A_N *77:27 5.47756e-05
11 *216:A_N *80:43 0.000186662
12 *231:B *55:10 9.90431e-05
13 *232:B *54:10 6.87574e-05
14 *232:B *55:10 5.52238e-05
15 *39:10 *215:B 2.8266e-06
16 *39:10 *48:16 0
17 *39:10 *78:30 2.66026e-05
18 *231:A *231:B 5.77148e-05
19 *231:A *232:B 9.02232e-05
20 *232:A *231:B 0
21 *232:A *232:B 1.32387e-05
*RES
1 *215:X *39:4 9.3 
2 *39:4 *39:10 10.9464 
3 *39:10 *232:B 11.0679 
4 *39:10 *231:B 10.675 
5 *39:4 *216:A_N 13.5679 
*END

*D_NET *40 0.00427792
*CONN
*I *219:C_N I *D sky130_fd_sc_hd__or3b_1
*I *220:A1 I *D sky130_fd_sc_hd__a21o_1
*I *225:B1_N I *D sky130_fd_sc_hd__o21bai_1
*I *216:X O *D sky130_fd_sc_hd__and3b_1
*CAP
1 *219:C_N 7.44912e-05
2 *220:A1 0
3 *225:B1_N 0.000349776
4 *216:X 0.00121062
5 *40:19 0.000180826
6 *40:6 0.00166673
7 *219:C_N *219:B 6.05161e-06
8 *225:B1_N *225:A2 0.000119125
9 *225:B1_N *49:10 4.45768e-06
10 *40:6 *208:B 0.000122101
11 *40:6 *215:C 1.39726e-05
12 *40:6 *215:D 0.000188586
13 *40:6 *80:43 7.49387e-06
14 *40:19 *220:A2 1.02504e-05
15 *40:19 *225:A2 3.69697e-05
16 *40:19 *41:10 3.67452e-05
17 *40:19 *44:10 0
18 *209:A_N *40:6 6.51826e-05
19 *209:B *40:6 3.41304e-05
20 *220:B1 *219:C_N 5.45614e-05
21 *32:6 *40:6 8.38662e-05
22 *33:12 *40:6 1.1979e-05
*RES
1 *216:X *40:6 24.6214 
2 *40:6 *225:B1_N 13.5321 
3 *40:6 *40:19 10.9464 
4 *40:19 *220:A1 9.3 
5 *40:19 *219:C_N 11.1036 
*END

*D_NET *41 0.00164144
*CONN
*I *225:A2 I *D sky130_fd_sc_hd__o21bai_1
*I *219:B I *D sky130_fd_sc_hd__or3b_1
*I *217:Y O *D sky130_fd_sc_hd__a21oi_1
*CAP
1 *225:A2 0.000197312
2 *219:B 4.34906e-05
3 *217:Y 0.000326987
4 *41:10 0.00056779
5 *225:A2 *44:10 0
6 *225:A2 *49:10 1.21258e-05
7 *41:10 *220:A2 0.000127446
8 *217:A2 *41:10 6.19181e-05
9 *217:B1 *41:10 3.18676e-05
10 *219:C_N *219:B 6.05161e-06
11 *220:B1 *219:B 1.15172e-05
12 *225:A1 *225:A2 5.52302e-05
13 *225:A1 *41:10 0
14 *225:B1_N *225:A2 0.000119125
15 *21:25 *41:10 6.8646e-06
16 *30:14 *41:10 0
17 *38:8 *41:10 0
18 *40:19 *225:A2 3.69697e-05
19 *40:19 *41:10 3.67452e-05
*RES
1 *217:Y *41:10 19.3179 
2 *41:10 *219:B 14.3357 
3 *41:10 *225:A2 18.05 
*END

*D_NET *42 0.000270828
*CONN
*I *220:A2 I *D sky130_fd_sc_hd__a21o_1
*I *218:X O *D sky130_fd_sc_hd__a21o_1
*CAP
1 *220:A2 6.65657e-05
2 *218:X 6.65657e-05
3 *30:14 *220:A2 0
4 *40:19 *220:A2 1.02504e-05
5 *41:10 *220:A2 0.000127446
*RES
1 *218:X *220:A2 29.2429 
*END

*D_NET *43 0.00150296
*CONN
*I *239:A1 I *D sky130_fd_sc_hd__a31o_1
*I *247:A1 I *D sky130_fd_sc_hd__a21oi_1
*I *226:A I *D sky130_fd_sc_hd__and3_1
*I *219:X O *D sky130_fd_sc_hd__or3b_1
*CAP
1 *239:A1 0.000187124
2 *247:A1 6.59729e-05
3 *226:A 1.99857e-05
4 *219:X 0.000239021
5 *43:14 0.000126795
6 *43:10 0.000466981
7 *226:A *226:C 1.04232e-05
8 *239:A1 *239:A3 9.55563e-05
9 *239:A1 *49:10 2.61337e-05
10 *239:A1 *50:23 0
11 *247:A1 *226:C 2.89016e-05
12 *247:A1 *248:B 1.56e-05
13 *43:10 *49:10 3.69697e-05
14 *43:14 *226:C 3.52966e-05
15 *225:A1 *43:10 0.000148196
*RES
1 *219:X *43:10 17.8 
2 *43:10 *43:14 5.03571 
3 *43:14 *226:A 9.72857 
4 *43:14 *247:A1 10.2464 
5 *43:10 *239:A1 16.9607 
*END

*D_NET *44 0.00194926
*CONN
*I *221:C I *D sky130_fd_sc_hd__and3_1
*I *222:B1 I *D sky130_fd_sc_hd__a21o_1
*I *220:X O *D sky130_fd_sc_hd__a21o_1
*CAP
1 *221:C 3.91322e-05
2 *222:B1 0.000210406
3 *220:X 0.000421177
4 *44:10 0.000670715
5 *44:10 *237:B 3.15645e-05
6 *44:10 *239:A2 0
7 *44:10 *239:B1 9.11365e-06
8 *44:10 *247:B1 0
9 *44:10 *49:10 0
10 *209:C *44:10 0
11 *209:D *44:10 0
12 *222:A1 *222:B1 9.90367e-05
13 *222:A2 *221:C 2.89114e-05
14 *222:A2 *222:B1 1.98839e-05
15 *225:A2 *44:10 0
16 *33:12 *44:10 0.000340052
17 *35:10 *44:10 7.83587e-05
18 *36:12 *221:C 9.04073e-07
19 *40:19 *44:10 0
*RES
1 *220:X *44:10 26.6214 
2 *44:10 *222:B1 12.2107 
3 *44:10 *221:C 9.90714 
*END

*D_NET *45 0.00218194
*CONN
*I *240:A1 I *D sky130_fd_sc_hd__a22o_1
*I *228:B1 I *D sky130_fd_sc_hd__a21oi_1
*I *223:A_N I *D sky130_fd_sc_hd__and2b_1
*I *221:X O *D sky130_fd_sc_hd__and3_1
*CAP
1 *240:A1 0.000111619
2 *228:B1 0
3 *223:A_N 0.000107218
4 *221:X 0.000213241
5 *45:16 0.000372469
6 *45:10 0.000590111
7 *223:A_N *223:B 9.90367e-05
8 *223:A_N *228:A2 5.71472e-05
9 *240:A1 *237:B 0
10 *240:A1 *240:B2 3.34672e-05
11 *45:10 *237:B 0
12 *45:16 *237:A 0.000360894
13 *36:12 *45:10 0.000236741
*RES
1 *221:X *45:10 18.2286 
2 *45:10 *45:16 10.0893 
3 *45:16 *223:A_N 11.4964 
4 *45:16 *228:B1 9.3 
5 *45:10 *240:A1 15.7464 
*END

*D_NET *46 0.00071245
*CONN
*I *228:A1 I *D sky130_fd_sc_hd__a21oi_1
*I *223:B I *D sky130_fd_sc_hd__and2b_1
*I *222:X O *D sky130_fd_sc_hd__a21o_1
*CAP
1 *228:A1 2.86246e-05
2 *223:B 0.000104061
3 *222:X 5.77931e-05
4 *46:8 0.000190479
5 *223:B *228:A2 7.32955e-05
6 *228:A1 *240:B1 5.59013e-05
7 *46:8 *240:B1 0.00010326
8 *46:8 *50:23 0
9 *223:A_N *223:B 9.90367e-05
*RES
1 *222:X *46:8 15.1393 
2 *46:8 *223:B 15.9786 
3 *46:8 *228:A1 14.5321 
*END

*D_NET *47 0.000265043
*CONN
*I *227:A I *D sky130_fd_sc_hd__xor2_1
*I *223:X O *D sky130_fd_sc_hd__and2b_1
*CAP
1 *227:A 8.28637e-05
2 *223:X 8.28637e-05
3 *227:A *227:B 3.46677e-05
4 *227:A *228:A2 6.46481e-05
*RES
1 *223:X *227:A 20.3857 
*END

*D_NET *48 0.00559882
*CONN
*I *239:A2 I *D sky130_fd_sc_hd__a31o_1
*I *226:B I *D sky130_fd_sc_hd__and3_1
*I *247:B1 I *D sky130_fd_sc_hd__a21oi_1
*I *224:X O *D sky130_fd_sc_hd__a31o_1
*CAP
1 *239:A2 0.000122434
2 *226:B 0.000199242
3 *247:B1 6.35166e-05
4 *224:X 0.00162645
5 *48:18 0.000318391
6 *48:16 0.00180452
7 *226:B *248:B 0.000125565
8 *239:A2 *239:A3 1.69115e-05
9 *239:A2 *239:B1 9.7659e-05
10 *239:A2 *240:B1 2.89016e-05
11 *239:A2 *50:23 0
12 *247:B1 *239:A3 2.66026e-05
13 *247:B1 *49:10 1.19309e-05
14 *48:16 *224:A1 1.56e-05
15 *48:16 *229:B 0.000259674
16 *48:16 *239:B1 0.000399841
17 *48:16 *77:25 0.000136744
18 *48:16 *78:30 0
19 *48:16 *81:55 5.03772e-05
20 *48:18 *239:A3 2.28428e-05
21 *211:A *48:16 7.32955e-05
22 *216:A_N *48:16 5.33334e-05
23 *28:18 *48:16 0.000109128
24 *34:23 *48:16 3.58616e-05
25 *39:10 *48:16 0
26 *44:10 *239:A2 0
27 *44:10 *247:B1 0
*RES
1 *224:X *48:16 45.4071 
2 *48:16 *48:18 1.03571 
3 *48:18 *247:B1 15.1393 
4 *48:18 *226:B 16.3893 
5 *48:16 *239:A2 16.6036 
*END

*D_NET *49 0.00121647
*CONN
*I *239:A3 I *D sky130_fd_sc_hd__a31o_1
*I *247:A2 I *D sky130_fd_sc_hd__a21oi_1
*I *226:C I *D sky130_fd_sc_hd__and3_1
*I *225:Y O *D sky130_fd_sc_hd__o21bai_1
*CAP
1 *239:A3 9.22436e-05
2 *247:A2 0
3 *226:C 7.41686e-05
4 *225:Y 0.000201181
5 *49:12 7.41686e-05
6 *49:10 0.000293425
7 *226:C *248:B 0.000124219
8 *225:A1 *49:10 2.89114e-05
9 *225:A2 *49:10 1.21258e-05
10 *225:B1_N *49:10 4.45768e-06
11 *226:A *226:C 1.04232e-05
12 *239:A1 *239:A3 9.55563e-05
13 *239:A1 *49:10 2.61337e-05
14 *239:A2 *239:A3 1.69115e-05
15 *247:A1 *226:C 2.89016e-05
16 *247:B1 *239:A3 2.66026e-05
17 *247:B1 *49:10 1.19309e-05
18 *43:10 *49:10 3.69697e-05
19 *43:14 *226:C 3.52966e-05
20 *44:10 *49:10 0
21 *48:18 *239:A3 2.28428e-05
*RES