*SPEF "ieee 1481-1999"
*DESIGN "SarsaNStepsRuido_e9"
*DATE "18:15:21 Tuesday September 16, 2025"
*VENDOR "The OpenROAD Project"
*PROGRAM "OpenROAD"
*VERSION "edf00dff99f6c40d67a30c0e22a8191c5d2ed9d6"
*DESIGN_FLOW "NAME_SCOPE LOCAL" "PIN_CAP NONE"
*DIVIDER /
*DELIMITER :
*BUS_DELIMITER []
*T_UNIT 1 NS
*C_UNIT 1 PF
*R_UNIT 1 OHM
*L_UNIT 1 HENRY

*NAME_MAP
*1 A[0]
*2 A[1]
*3 B[0]
*4 B[1]
*5 net8
*6 P[1]
*7 P[2]
*8 P[3]
*11 _00_
*12 _01_
*13 _02_
*14 _03_
*15 net1
*16 net2
*17 net3
*18 net4
*19 net5
*20 net6
*21 net7
*22 FILLER_0_15
*23 FILLER_0_27
*24 FILLER_0_29
*25 FILLER_0_3
*26 FILLER_0_34
*27 FILLER_0_41
*28 FILLER_0_49
*29 FILLER_0_55
*30 FILLER_0_57
*31 FILLER_0_69
*32 FILLER_1_15
*33 FILLER_1_21
*34 FILLER_1_3
*35 FILLER_1_31
*36 FILLER_1_43
*37 FILLER_1_55
*38 FILLER_1_57
*39 FILLER_1_69
*40 FILLER_2_16
*41 FILLER_2_29
*42 FILLER_2_3
*43 FILLER_2_41
*44 FILLER_2_53
*45 FILLER_2_65
*46 FILLER_2_77
*47 FILLER_3_15
*48 FILLER_3_27
*49 FILLER_3_3
*50 FILLER_3_39
*51 FILLER_3_51
*52 FILLER_3_55
*53 FILLER_3_57
*54 FILLER_3_69
*55 FILLER_4_15
*56 FILLER_4_27
*57 FILLER_4_3
*58 FILLER_4_36
*59 FILLER_4_48
*60 FILLER_4_60
*61 FILLER_4_72
*62 FILLER_4_80
*63 FILLER_5_18
*64 FILLER_5_24
*65 FILLER_5_28
*66 FILLER_5_40
*67 FILLER_5_52
*68 FILLER_5_57
*69 FILLER_5_6
*70 FILLER_5_69
*71 FILLER_6_18
*72 FILLER_6_26
*73 FILLER_6_33
*74 FILLER_6_45
*75 FILLER_6_57
*76 FILLER_6_6
*77 FILLER_6_69
*78 FILLER_7_15
*79 FILLER_7_27
*80 FILLER_7_3
*81 FILLER_7_39
*82 FILLER_7_51
*83 FILLER_7_55
*84 FILLER_7_57
*85 FILLER_7_69
*86 FILLER_8_15
*87 FILLER_8_27
*88 FILLER_8_29
*89 FILLER_8_3
*90 FILLER_8_41
*91 FILLER_8_53
*92 FILLER_8_65
*93 FILLER_8_77
*94 FILLER_9_18
*95 FILLER_9_26
*96 FILLER_9_29
*97 FILLER_9_37
*98 FILLER_9_42
*99 FILLER_9_49
*100 FILLER_9_55
*101 FILLER_9_57
*102 FILLER_9_6
*103 FILLER_9_69
*104 PHY_EDGE_ROW_0_Left_10
*105 PHY_EDGE_ROW_0_Right_0
*106 PHY_EDGE_ROW_1_Left_11
*107 PHY_EDGE_ROW_1_Right_1
*108 PHY_EDGE_ROW_2_Left_12
*109 PHY_EDGE_ROW_2_Right_2
*110 PHY_EDGE_ROW_3_Left_13
*111 PHY_EDGE_ROW_3_Right_3
*112 PHY_EDGE_ROW_4_Left_14
*113 PHY_EDGE_ROW_4_Right_4
*114 PHY_EDGE_ROW_5_Left_15
*115 PHY_EDGE_ROW_5_Right_5
*116 PHY_EDGE_ROW_6_Left_16
*117 PHY_EDGE_ROW_6_Right_6
*118 PHY_EDGE_ROW_7_Left_17
*119 PHY_EDGE_ROW_7_Right_7
*120 PHY_EDGE_ROW_8_Left_18
*121 PHY_EDGE_ROW_8_Right_8
*122 PHY_EDGE_ROW_9_Left_19
*123 PHY_EDGE_ROW_9_Right_9
*124 SarsaNStepsRuido_e9_8
*125 TAP_TAPCELL_ROW_0_20
*126 TAP_TAPCELL_ROW_0_21
*127 TAP_TAPCELL_ROW_1_22
*128 TAP_TAPCELL_ROW_2_23
*129 TAP_TAPCELL_ROW_3_24
*130 TAP_TAPCELL_ROW_4_25
*131 TAP_TAPCELL_ROW_5_26
*132 TAP_TAPCELL_ROW_6_27
*133 TAP_TAPCELL_ROW_7_28
*134 TAP_TAPCELL_ROW_8_29
*135 TAP_TAPCELL_ROW_9_30
*136 TAP_TAPCELL_ROW_9_31
*137 _04_
*138 _05_
*139 _06_
*140 _07_
*141 _08_
*142 _09_
*143 _10_
*144 input1
*145 input2
*146 input3
*147 input4
*148 output5
*149 output6
*150 output7

*PORTS
A[0] I
A[1] I
B[0] I
B[1] I
P[0] O
P[1] O
P[2] O
P[3] O

*D_NET *1 0.000901682
*CONN
*P A[0] I
*I *144:A I *D sky130_fd_sc_hd__buf_1
*CAP
1 A[0] 0.000450841
2 *144:A 0.000450841
3 *144:A *145:A 0
*RES
1 A[0] *144:A 47.3214 
*END

*D_NET *2 0.00101399
*CONN
*P A[1] I
*I *145:A I *D sky130_fd_sc_hd__buf_1
*CAP
1 A[1] 0.000506997
2 *145:A 0.000506997
3 *145:A P[1] 0
4 *144:A *145:A 0
*RES
1 A[1] *145:A 48.2743 
*END

*D_NET *3 0.000564664
*CONN
*P B[0] I
*I *146:A I *D sky130_fd_sc_hd__buf_1
*CAP
1 B[0] 0.000268376
2 *146:A 0.000268376
3 *146:A P[0] 0
4 *146:A *4:17 2.79122e-05
*RES
1 B[0] *146:A 47.7832 
*END

*D_NET *4 0.000721673
*CONN
*P B[1] I
*I *147:A I *D sky130_fd_sc_hd__buf_1
*CAP
1 B[1] 0.00034688
2 *147:A 0
3 *4:17 0.00034688
4 *146:A *4:17 2.79122e-05
*RES
1 B[1] *4:17 27.8627 
2 *4:17 *147:A 23 
*END

*D_NET *5 0.000630489
*CONN
*P P[0] O
*I *124:LO O *D sky130_fd_sc_hd__conb_1
*CAP
1 P[0] 0.000315245
2 *124:LO 0.000315245
3 *146:A P[0] 0
*RES
1 *124:LO P[0] 48.4875 
*END

*D_NET *6 0.000986104
*CONN
*P P[1] O
*I *148:X O *D sky130_fd_sc_hd__buf_2
*CAP
1 P[1] 0.000493052
2 *148:X 0.000493052
3 *145:A P[1] 0
*RES
1 *148:X P[1] 47.86 
*END

*D_NET *7 0.00100375
*CONN
*P P[2] O
*I *149:X O *D sky130_fd_sc_hd__buf_2
*CAP
1 P[2] 0.000501876
2 *149:X 0.000501876
3 P[2] P[3] 0
*RES
1 *149:X P[2] 48.9786 
*END

*D_NET *8 0.00100297
*CONN
*P P[3] O
*I *150:X O *D sky130_fd_sc_hd__buf_2
*CAP
1 P[3] 0.000501485
2 *150:X 0.000501485
3 P[2] P[3] 0
*RES
1 *150:X P[3] 48.9786 
*END

*D_NET *11 0.000884801
*CONN
*I *143:A1 I *D sky130_fd_sc_hd__a21oi_1
*I *140:Y O *D sky130_fd_sc_hd__nand3_1
*CAP
1 *143:A1 0
2 *140:Y 0.000320145
3 *11:10 0.000320145
4 *11:10 *141:D 0.000102093
5 *11:10 *12:10 8.62876e-05
6 *11:10 *16:51 5.61311e-05
7 *11:10 *21:10 0
*RES
1 *140:Y *11:10 44.0693 
2 *11:10 *143:A1 38 
*END

*D_NET *12 0.000447172
*CONN
*I *143:A2 I *D sky130_fd_sc_hd__a21oi_1
*I *142:Y O *D sky130_fd_sc_hd__nand2_1
*CAP
1 *143:A2 0
2 *142:Y 0.000180442
3 *12:10 0.000180442
4 *12:10 *21:10 0
5 *11:10 *12:10 8.62876e-05
*RES
1 *142:Y *12:10 41.0036 
2 *12:10 *143:A2 38 
*END

*D_NET *13 0.000397079
*CONN
*I *139:B1 I *D sky130_fd_sc_hd__a31oi_1
*I *137:Y O *D sky130_fd_sc_hd__a21oi_1
*CAP
1 *139:B1 4.43767e-06
2 *137:Y 0.000166056
3 *13:14 0.000170494
4 *139:B1 *139:A1 8.6101e-06
5 *139:B1 *139:A2 1.42144e-05
6 *13:14 *139:A1 2.26823e-05
7 *13:14 *14:10 0
8 *13:14 *15:10 0
9 *13:14 *15:14 1.05846e-05
*RES
1 *137:Y *13:14 40.3407 
2 *13:14 *139:B1 38.1657 
*END

*D_NET *14 0.000829319
*CONN
*I *139:A3 I *D sky130_fd_sc_hd__a31oi_1
*I *138:Y O *D sky130_fd_sc_hd__nand2b_1
*CAP
1 *139:A3 0
2 *138:Y 0.00037909
3 *14:10 0.00037909
4 *14:10 *138:A_N 1.40958e-05
5 *14:10 *138:B 5.70419e-05
6 *14:10 *16:36 0
7 *13:14 *14:10 0
*RES
1 *138:Y *14:10 43.3857 
2 *14:10 *139:A3 38 
*END

*D_NET *15 0.00328328
*CONN
*I *141:C I *D sky130_fd_sc_hd__and4_1
*I *140:C I *D sky130_fd_sc_hd__nand3_1
*I *137:B1 I *D sky130_fd_sc_hd__a21oi_1
*I *139:A2 I *D sky130_fd_sc_hd__a31oi_1
*I *144:X O *D sky130_fd_sc_hd__buf_1
*CAP
1 *141:C 0
2 *140:C 0.000300337
3 *137:B1 0
4 *139:A2 3.96669e-05
5 *144:X 0.00022513
6 *15:30 0.000569219
7 *15:14 0.000140455
8 *15:10 0.000594801
9 *139:A2 *137:A1 0.000187129
10 *139:A2 *139:A1 5.21996e-05
11 *140:C *140:B 0.00010018
12 *140:C *141:D 1.21972e-05
13 *140:C *16:38 0.000172197
14 *140:C *17:38 4.95081e-05
15 *15:10 *16:36 3.47781e-05
16 *15:14 *137:A1 0.00010018
17 *15:14 *139:A1 3.8382e-05
18 *15:14 *16:12 5.3304e-05
19 *15:14 *16:14 5.50049e-05
20 *15:30 *16:36 0.000533811
21 *139:B1 *139:A2 1.42144e-05
22 *13:14 *15:10 0
23 *13:14 *15:14 1.05846e-05
*RES
1 *144:X *15:10 41.2314 
2 *15:10 *15:14 17.5271 
3 *15:14 *139:A2 25.0507 
4 *15:14 *137:B1 23 
5 *15:10 *15:30 22.1879 
6 *15:30 *140:C 27.93 
7 *15:30 *141:C 23 
*END

*D_NET *16 0.00367405
*CONN
*I *141:B I *D sky130_fd_sc_hd__and4_1
*I *142:A I *D sky130_fd_sc_hd__nand2_1
*I *140:B I *D sky130_fd_sc_hd__nand3_1
*I *137:A2 I *D sky130_fd_sc_hd__a21oi_1
*I *139:A1 I *D sky130_fd_sc_hd__a31oi_1
*I *145:X O *D sky130_fd_sc_hd__buf_1
*CAP
1 *141:B 0
2 *142:A 0
3 *140:B 1.60486e-05
4 *137:A2 0
5 *139:A1 0.000123496
6 *145:X 0.000140868
7 *16:51 0.000191333
8 *16:38 0.000245148
9 *16:36 0.000356831
10 *16:14 0.000135722
11 *16:12 0.000489055
12 *16:8 0.000298633
13 *139:A1 *19:10 0.000187129
14 *140:B *141:A 4.17736e-05
15 *140:B *17:38 5.67058e-05
16 *16:8 *19:10 0
17 *16:12 *19:10 0.000101285
18 *16:14 *19:10 1.76557e-05
19 *16:38 *141:A 9.84851e-05
20 *16:38 *141:D 4.6595e-05
21 *16:51 *17:10 0
22 *16:51 *17:12 0
23 *139:A2 *139:A1 5.21996e-05
24 *139:B1 *139:A1 8.6101e-06
25 *140:C *140:B 0.00010018
26 *140:C *16:38 0.000172197
27 *11:10 *16:51 5.61311e-05
28 *13:14 *139:A1 2.26823e-05
29 *14:10 *16:36 0
30 *15:10 *16:36 3.47781e-05
31 *15:14 *139:A1 3.8382e-05
32 *15:14 *16:12 5.3304e-05
33 *15:14 *16:14 5.50049e-05
34 *15:30 *16:36 0.000533811
*RES
1 *145:X *16:8 40.2579 
2 *16:8 *16:12 18.48 
3 *16:12 *16:14 0.621429 
4 *16:14 *139:A1 27.35 
5 *16:14 *137:A2 23 
6 *16:12 *16:36 37.8921 
7 *16:36 *16:38 2.05071 
8 *16:38 *140:B 24.0979 
9 *16:38 *16:51 33.6664 
10 *16:51 *142:A 23 
11 *16:36 *141:B 23 
*END

*D_NET *17 0.00540059
*CONN
*I *141:A I *D sky130_fd_sc_hd__and4_1
*I *140:A I *D sky130_fd_sc_hd__nand3_1
*I *138:A_N I *D sky130_fd_sc_hd__nand2b_1
*I *137:A1 I *D sky130_fd_sc_hd__a21oi_1
*I *146:X O *D sky130_fd_sc_hd__buf_1
*CAP
1 *141:A 3.16582e-05
2 *140:A 0
3 *138:A_N 0.000180687
4 *137:A1 0.000495085
5 *146:X 0.000721453
6 *17:38 0.000140385
7 *17:12 0.000871137
8 *17:10 0.00102554
9 *137:A1 *138:B 3.47781e-05
10 *138:A_N *138:B 0.000199605
11 *141:A *141:D 0.000141052
12 *17:10 *138:B 2.55642e-05
13 *17:10 *18:12 0.000223043
14 *17:12 *138:B 0.000403387
15 *17:38 *141:D 0.000359332
16 *139:A2 *137:A1 0.000187129
17 *140:B *141:A 4.17736e-05
18 *140:B *17:38 5.67058e-05
19 *140:C *17:38 4.95081e-05
20 *14:10 *138:A_N 1.40958e-05
21 *15:14 *137:A1 0.00010018
22 *16:38 *141:A 9.84851e-05
23 *16:51 *17:10 0
24 *16:51 *17:12 0
*RES
1 *146:X *17:10 49.4136 
2 *17:10 *17:12 5.42714 
3 *17:12 *137:A1 45.6436 
4 *17:12 *138:A_N 41.9771 
5 *17:10 *17:38 18.9564 
6 *17:38 *140:A 23 
7 *17:38 *141:A 24.5743 
*END

*D_NET *18 0.00450006
*CONN
*I *142:B I *D sky130_fd_sc_hd__nand2_1
*I *141:D I *D sky130_fd_sc_hd__and4_1
*I *138:B I *D sky130_fd_sc_hd__nand2b_1
*I *147:X O *D sky130_fd_sc_hd__buf_1
*CAP
1 *142:B 0.000229896
2 *141:D 0.000447777
3 *138:B 0.000287081
4 *147:X 0.00036468
5 *18:12 0.00084935
6 *18:8 0.000709069
7 *141:D *21:10 7.51453e-06
8 *137:A1 *138:B 3.47781e-05
9 *138:A_N *138:B 0.000199605
10 *140:C *141:D 1.21972e-05
11 *141:A *141:D 0.000141052
12 *11:10 *141:D 0.000102093
13 *14:10 *138:B 5.70419e-05
14 *16:38 *141:D 4.6595e-05
15 *17:10 *138:B 2.55642e-05
16 *17:10 *18:12 0.000223043
17 *17:12 *138:B 0.000403387
18 *17:38 *141:D 0.000359332
*RES
1 *147:X *18:8 29.7114 
2 *18:8 *18:12 17.9621 
3 *18:12 *138:B 46.3375 
4 *18:12 *141:D 49.02 
5 *18:8 *142:B 26.9564 
*END

*D_NET *19 0.00190852
*CONN
*I *148:A I *D sky130_fd_sc_hd__buf_2
*I *139:Y O *D sky130_fd_sc_hd__a31oi_1
*CAP
1 *148:A 0
2 *139:Y 0.000801225
3 *19:10 0.000801225
4 *139:A1 *19:10 0.000187129
5 *16:8 *19:10 0
6 *16:12 *19:10 0.000101285
7 *16:14 *19:10 1.76557e-05
*RES
1 *139:Y *19:10 49.455 
2 *19:10 *148:A 38 
*END

*D_NET *20 0.00134553
*CONN
*I *149:A I *D sky130_fd_sc_hd__buf_2
*I *143:Y O *D sky130_fd_sc_hd__a21oi_1
*CAP
1 *149:A 0
2 *143:Y 0.000621977
3 *20:10 0.000621977
4 *20:10 *143:B1 9.78683e-05
5 *20:10 *21:27 3.7122e-06
*RES
1 *143:Y *20:10 48.8957 
2 *20:10 *149:A 38 
*END

*D_NET *21 0.00250313
*CONN
*I *150:A I *D sky130_fd_sc_hd__buf_2
*I *143:B1 I *D sky130_fd_sc_hd__a21oi_1
*I *141:X O *D sky130_fd_sc_hd__and4_1
*CAP
1 *150:A 0
2 *143:B1 0.00013093
3 *141:X 0.000376889
4 *21:27 0.000689196
5 *21:12 0.000820126
6 *21:10 0.000376889
7 *141:D *21:10 7.51453e-06
8 *11:10 *21:10 0
9 *12:10 *21:10 0
10 *20:10 *143:B1 9.78683e-05
11 *20:10 *21:27 3.7122e-06
*RES
1 *141:X *21:10 44.2971 
2 *21:10 *21:12 15 
3 *21:12 *143:B1 26.0036 
4 *21:12 *21:27 42.4286 
5 *21:27 *150:A 23 
*END
