*SPEF "ieee 1481-1999"
*DESIGN "mult8_2bits_1op_e16767"
*DATE "18:57:55 Tuesday September 16, 2025"
*VENDOR "The OpenROAD Project"
*PROGRAM "OpenROAD"
*VERSION "edf00dff99f6c40d67a30c0e22a8191c5d2ed9d6"
*DESIGN_FLOW "NAME_SCOPE LOCAL" "PIN_CAP NONE"
*DIVIDER /
*DELIMITER :
*BUS_DELIMITER []
*T_UNIT 1 NS
*C_UNIT 1 PF
*R_UNIT 1 OHM
*L_UNIT 1 HENRY

*NAME_MAP
*1 A[0]
*2 A[1]
*3 A[2]
*4 A[3]
*5 A[4]
*6 A[5]
*7 A[6]
*8 A[7]
*9 B[0]
*10 B[1]
*11 B[2]
*12 B[3]
*13 B[4]
*14 B[5]
*15 B[6]
*16 B[7]
*17 net46
*18 P[10]
*19 P[11]
*20 P[12]
*21 P[13]
*22 P[14]
*23 P[15]
*24 P[1]
*25 P[2]
*26 P[3]
*27 P[4]
*28 P[5]
*29 P[6]
*30 P[7]
*31 P[8]
*32 P[9]
*35 _000_
*36 _001_
*37 _002_
*38 _003_
*39 _004_
*40 _005_
*41 _006_
*42 _007_
*43 _008_
*44 _009_
*45 _010_
*46 _011_
*47 _012_
*48 _013_
*49 _014_
*50 _015_
*51 _016_
*52 _017_
*53 _018_
*54 _019_
*55 _020_
*56 _021_
*57 _022_
*58 _023_
*59 _024_
*60 _025_
*61 _026_
*62 _027_
*63 _028_
*64 _029_
*65 _030_
*66 _031_
*67 _032_
*68 _033_
*69 _034_
*70 _035_
*71 _036_
*72 _037_
*73 _038_
*74 _039_
*75 _040_
*76 _041_
*77 _042_
*78 _043_
*79 _044_
*80 _045_
*81 _046_
*82 _047_
*83 _048_
*84 _049_
*85 _050_
*86 _051_
*87 _052_
*88 _053_
*89 _054_
*90 _055_
*91 _056_
*92 _057_
*93 _058_
*94 _059_
*95 _060_
*96 _061_
*97 _062_
*98 _063_
*99 _064_
*100 _065_
*101 _066_
*102 _067_
*103 _068_
*104 _069_
*105 _070_
*106 _071_
*107 _072_
*108 _073_
*109 _074_
*110 _075_
*111 _076_
*112 _077_
*113 _078_
*114 _079_
*115 _080_
*116 _081_
*117 _082_
*118 _083_
*119 _084_
*120 _085_
*121 _086_
*122 _087_
*123 _088_
*124 _089_
*125 _090_
*126 _091_
*127 _092_
*128 _093_
*129 _094_
*130 _095_
*131 _096_
*132 _097_
*133 _098_
*134 _099_
*135 _100_
*136 _101_
*137 _102_
*138 _103_
*139 _104_
*140 _105_
*141 _106_
*142 _107_
*143 _108_
*144 _109_
*145 _110_
*146 _111_
*147 _112_
*148 _113_
*149 _114_
*150 _115_
*151 _116_
*152 _117_
*153 _118_
*154 _119_
*155 _120_
*156 _121_
*157 _122_
*158 _123_
*159 _124_
*160 _125_
*161 _126_
*162 _127_
*163 _128_
*164 _129_
*165 _130_
*166 _131_
*167 _132_
*168 _133_
*169 _134_
*170 _135_
*171 _136_
*172 _137_
*173 _138_
*174 _139_
*175 _140_
*176 _141_
*177 _142_
*178 _143_
*179 _144_
*180 _145_
*181 _146_
*182 _147_
*183 _148_
*184 _149_
*185 _150_
*186 _151_
*187 _152_
*188 _153_
*189 _154_
*190 _155_
*191 _156_
*192 _157_
*193 _158_
*194 _159_
*195 _160_
*196 _161_
*197 _162_
*198 _163_
*199 _164_
*200 _165_
*201 _166_
*202 _167_
*203 _168_
*204 _169_
*205 _170_
*206 _171_
*207 _172_
*208 _173_
*209 _174_
*210 _175_
*211 _176_
*212 _177_
*213 _178_
*214 _179_
*215 _180_
*216 _181_
*217 _182_
*218 _183_
*219 _184_
*220 _185_
*221 _186_
*222 _187_
*223 _188_
*224 _189_
*225 _190_
*226 _191_
*227 _192_
*228 _193_
*229 _194_
*230 _195_
*231 _196_
*232 _197_
*233 _198_
*234 _199_
*235 _200_
*236 _201_
*237 _202_
*238 _203_
*239 _204_
*240 _205_
*241 _206_
*242 _207_
*243 _208_
*244 _209_
*245 _210_
*246 _211_
*247 _212_
*248 _213_
*249 _214_
*250 _215_
*251 _216_
*252 _217_
*253 _218_
*254 _219_
*255 _220_
*256 _221_
*257 _222_
*258 _223_
*259 _224_
*260 _225_
*261 _226_
*262 _227_
*263 _228_
*264 _229_
*265 _230_
*266 _231_
*267 _232_
*268 _233_
*269 _234_
*270 _235_
*271 _236_
*272 _237_
*273 _238_
*274 _239_
*275 _240_
*276 _241_
*277 _242_
*278 _243_
*279 _244_
*280 _245_
*281 _246_
*282 _247_
*283 _248_
*284 _249_
*285 _250_
*286 _251_
*287 _252_
*288 _253_
*289 _254_
*290 _255_
*291 _256_
*292 _257_
*293 _258_
*294 _259_
*295 _260_
*296 _261_
*297 _262_
*298 _263_
*299 _264_
*300 _265_
*301 _266_
*302 _267_
*303 _268_
*304 _269_
*305 _270_
*306 _271_
*307 _272_
*308 _273_
*309 _274_
*310 _275_
*311 _276_
*312 _277_
*313 _278_
*314 _279_
*315 _280_
*316 _281_
*317 _282_
*318 _283_
*319 net1
*320 net10
*321 net11
*322 net12
*323 net13
*324 net14
*325 net15
*326 net16
*327 net17
*328 net18
*329 net19
*330 net2
*331 net20
*332 net21
*333 net22
*334 net23
*335 net24
*336 net25
*337 net26
*338 net27
*339 net28
*340 net29
*341 net3
*342 net30
*343 net31
*344 net32
*345 net33
*346 net34
*347 net35
*348 net36
*349 net37
*350 net38
*351 net39
*352 net4
*353 net40
*354 net41
*355 net42
*356 net43
*357 net44
*358 net45
*359 net47
*360 net48
*361 net49
*362 net5
*363 net50
*364 net51
*365 net52
*366 net53
*367 net54
*368 net55
*369 net56
*370 net57
*371 net58
*372 net59
*373 net6
*374 net60
*375 net61
*376 net62
*377 net63
*378 net64
*379 net65
*380 net66
*381 net67
*382 net68
*383 net69
*384 net7
*385 net70
*386 net71
*387 net8
*388 net9
*389 FILLER_0_103
*390 FILLER_0_111
*391 FILLER_0_113
*392 FILLER_0_121
*393 FILLER_0_133
*394 FILLER_0_139
*395 FILLER_0_141
*396 FILLER_0_15
*397 FILLER_0_153
*398 FILLER_0_161
*399 FILLER_0_169
*400 FILLER_0_177
*401 FILLER_0_192
*402 FILLER_0_197
*403 FILLER_0_209
*404 FILLER_0_221
*405 FILLER_0_231
*406 FILLER_0_243
*407 FILLER_0_251
*408 FILLER_0_253
*409 FILLER_0_265
*410 FILLER_0_27
*411 FILLER_0_277
*412 FILLER_0_281
*413 FILLER_0_29
*414 FILLER_0_293
*415 FILLER_0_3
*416 FILLER_0_305
*417 FILLER_0_309
*418 FILLER_0_317
*419 FILLER_0_329
*420 FILLER_0_335
*421 FILLER_0_337
*422 FILLER_0_349
*423 FILLER_0_361
*424 FILLER_0_365
*425 FILLER_0_377
*426 FILLER_0_389
*427 FILLER_0_393
*428 FILLER_0_405
*429 FILLER_0_41
*430 FILLER_0_53
*431 FILLER_0_57
*432 FILLER_0_69
*433 FILLER_0_81
*434 FILLER_0_85
*435 FILLER_0_91
*436 FILLER_10_109
*437 FILLER_10_121
*438 FILLER_10_133
*439 FILLER_10_139
*440 FILLER_10_141
*441 FILLER_10_15
*442 FILLER_10_153
*443 FILLER_10_165
*444 FILLER_10_177
*445 FILLER_10_189
*446 FILLER_10_195
*447 FILLER_10_197
*448 FILLER_10_209
*449 FILLER_10_221
*450 FILLER_10_233
*451 FILLER_10_245
*452 FILLER_10_251
*453 FILLER_10_253
*454 FILLER_10_265
*455 FILLER_10_27
*456 FILLER_10_277
*457 FILLER_10_289
*458 FILLER_10_29
*459 FILLER_10_3
*460 FILLER_10_301
*461 FILLER_10_307
*462 FILLER_10_309
*463 FILLER_10_321
*464 FILLER_10_333
*465 FILLER_10_345
*466 FILLER_10_357
*467 FILLER_10_363
*468 FILLER_10_365
*469 FILLER_10_377
*470 FILLER_10_389
*471 FILLER_10_401
*472 FILLER_10_41
*473 FILLER_10_53
*474 FILLER_10_65
*475 FILLER_10_77
*476 FILLER_10_83
*477 FILLER_10_85
*478 FILLER_10_97
*479 FILLER_11_105
*480 FILLER_11_111
*481 FILLER_11_113
*482 FILLER_11_125
*483 FILLER_11_137
*484 FILLER_11_149
*485 FILLER_11_15
*486 FILLER_11_161
*487 FILLER_11_167
*488 FILLER_11_169
*489 FILLER_11_181
*490 FILLER_11_193
*491 FILLER_11_205
*492 FILLER_11_217
*493 FILLER_11_223
*494 FILLER_11_225
*495 FILLER_11_237
*496 FILLER_11_249
*497 FILLER_11_261
*498 FILLER_11_27
*499 FILLER_11_273
*500 FILLER_11_279
*501 FILLER_11_281
*502 FILLER_11_293
*503 FILLER_11_3
*504 FILLER_11_305
*505 FILLER_11_317
*506 FILLER_11_329
*507 FILLER_11_335
*508 FILLER_11_337
*509 FILLER_11_349
*510 FILLER_11_361
*511 FILLER_11_373
*512 FILLER_11_385
*513 FILLER_11_39
*514 FILLER_11_391
*515 FILLER_11_393
*516 FILLER_11_405
*517 FILLER_11_51
*518 FILLER_11_55
*519 FILLER_11_57
*520 FILLER_11_69
*521 FILLER_11_81
*522 FILLER_11_93
*523 FILLER_12_109
*524 FILLER_12_121
*525 FILLER_12_133
*526 FILLER_12_139
*527 FILLER_12_141
*528 FILLER_12_15
*529 FILLER_12_153
*530 FILLER_12_165
*531 FILLER_12_177
*532 FILLER_12_189
*533 FILLER_12_195
*534 FILLER_12_197
*535 FILLER_12_209
*536 FILLER_12_221
*537 FILLER_12_233
*538 FILLER_12_245
*539 FILLER_12_251
*540 FILLER_12_253
*541 FILLER_12_265
*542 FILLER_12_27
*543 FILLER_12_277
*544 FILLER_12_289
*545 FILLER_12_29
*546 FILLER_12_3
*547 FILLER_12_301
*548 FILLER_12_307
*549 FILLER_12_309
*550 FILLER_12_321
*551 FILLER_12_333
*552 FILLER_12_345
*553 FILLER_12_357
*554 FILLER_12_363
*555 FILLER_12_365
*556 FILLER_12_377
*557 FILLER_12_389
*558 FILLER_12_401
*559 FILLER_12_41
*560 FILLER_12_53
*561 FILLER_12_65
*562 FILLER_12_77
*563 FILLER_12_83
*564 FILLER_12_85
*565 FILLER_12_97
*566 FILLER_13_105
*567 FILLER_13_111
*568 FILLER_13_113
*569 FILLER_13_125
*570 FILLER_13_137
*571 FILLER_13_149
*572 FILLER_13_15
*573 FILLER_13_161
*574 FILLER_13_167
*575 FILLER_13_169
*576 FILLER_13_181
*577 FILLER_13_193
*578 FILLER_13_205
*579 FILLER_13_217
*580 FILLER_13_223
*581 FILLER_13_225
*582 FILLER_13_237
*583 FILLER_13_249
*584 FILLER_13_261
*585 FILLER_13_27
*586 FILLER_13_273
*587 FILLER_13_279
*588 FILLER_13_281
*589 FILLER_13_293
*590 FILLER_13_3
*591 FILLER_13_305
*592 FILLER_13_317
*593 FILLER_13_329
*594 FILLER_13_335
*595 FILLER_13_337
*596 FILLER_13_349
*597 FILLER_13_361
*598 FILLER_13_373
*599 FILLER_13_385
*600 FILLER_13_39
*601 FILLER_13_391
*602 FILLER_13_393
*603 FILLER_13_405
*604 FILLER_13_51
*605 FILLER_13_55
*606 FILLER_13_57
*607 FILLER_13_69
*608 FILLER_13_81
*609 FILLER_13_93
*610 FILLER_14_109
*611 FILLER_14_121
*612 FILLER_14_133
*613 FILLER_14_139
*614 FILLER_14_141
*615 FILLER_14_15
*616 FILLER_14_153
*617 FILLER_14_165
*618 FILLER_14_177
*619 FILLER_14_189
*620 FILLER_14_195
*621 FILLER_14_197
*622 FILLER_14_209
*623 FILLER_14_221
*624 FILLER_14_233
*625 FILLER_14_245
*626 FILLER_14_251
*627 FILLER_14_253
*628 FILLER_14_265
*629 FILLER_14_27
*630 FILLER_14_277
*631 FILLER_14_289
*632 FILLER_14_29
*633 FILLER_14_3
*634 FILLER_14_301
*635 FILLER_14_307
*636 FILLER_14_309
*637 FILLER_14_321
*638 FILLER_14_333
*639 FILLER_14_345
*640 FILLER_14_357
*641 FILLER_14_363
*642 FILLER_14_365
*643 FILLER_14_377
*644 FILLER_14_389
*645 FILLER_14_401
*646 FILLER_14_41
*647 FILLER_14_53
*648 FILLER_14_65
*649 FILLER_14_77
*650 FILLER_14_83
*651 FILLER_14_85
*652 FILLER_14_97
*653 FILLER_15_105
*654 FILLER_15_111
*655 FILLER_15_113
*656 FILLER_15_125
*657 FILLER_15_137
*658 FILLER_15_149
*659 FILLER_15_15
*660 FILLER_15_161
*661 FILLER_15_167
*662 FILLER_15_169
*663 FILLER_15_181
*664 FILLER_15_193
*665 FILLER_15_205
*666 FILLER_15_217
*667 FILLER_15_223
*668 FILLER_15_225
*669 FILLER_15_237
*670 FILLER_15_249
*671 FILLER_15_261
*672 FILLER_15_27
*673 FILLER_15_273
*674 FILLER_15_279
*675 FILLER_15_281
*676 FILLER_15_293
*677 FILLER_15_3
*678 FILLER_15_305
*679 FILLER_15_317
*680 FILLER_15_329
*681 FILLER_15_335
*682 FILLER_15_337
*683 FILLER_15_349
*684 FILLER_15_361
*685 FILLER_15_373
*686 FILLER_15_385
*687 FILLER_15_39
*688 FILLER_15_391
*689 FILLER_15_393
*690 FILLER_15_405
*691 FILLER_15_51
*692 FILLER_15_55
*693 FILLER_15_57
*694 FILLER_15_69
*695 FILLER_15_81
*696 FILLER_15_93
*697 FILLER_16_109
*698 FILLER_16_121
*699 FILLER_16_133
*700 FILLER_16_139
*701 FILLER_16_141
*702 FILLER_16_15
*703 FILLER_16_153
*704 FILLER_16_161
*705 FILLER_16_170
*706 FILLER_16_182
*707 FILLER_16_194
*708 FILLER_16_197
*709 FILLER_16_209
*710 FILLER_16_221
*711 FILLER_16_233
*712 FILLER_16_245
*713 FILLER_16_251
*714 FILLER_16_253
*715 FILLER_16_265
*716 FILLER_16_27
*717 FILLER_16_277
*718 FILLER_16_289
*719 FILLER_16_29
*720 FILLER_16_3
*721 FILLER_16_301
*722 FILLER_16_307
*723 FILLER_16_309
*724 FILLER_16_321
*725 FILLER_16_333
*726 FILLER_16_345
*727 FILLER_16_357
*728 FILLER_16_363
*729 FILLER_16_365
*730 FILLER_16_377
*731 FILLER_16_389
*732 FILLER_16_401
*733 FILLER_16_41
*734 FILLER_16_53
*735 FILLER_16_65
*736 FILLER_16_77
*737 FILLER_16_85
*738 FILLER_16_97
*739 FILLER_17_104
*740 FILLER_17_113
*741 FILLER_17_125
*742 FILLER_17_137
*743 FILLER_17_149
*744 FILLER_17_15
*745 FILLER_17_157
*746 FILLER_17_166
*747 FILLER_17_169
*748 FILLER_17_181
*749 FILLER_17_193
*750 FILLER_17_205
*751 FILLER_17_211
*752 FILLER_17_219
*753 FILLER_17_223
*754 FILLER_17_225
*755 FILLER_17_237
*756 FILLER_17_249
*757 FILLER_17_261
*758 FILLER_17_27
*759 FILLER_17_273
*760 FILLER_17_279
*761 FILLER_17_281
*762 FILLER_17_293
*763 FILLER_17_3
*764 FILLER_17_305
*765 FILLER_17_317
*766 FILLER_17_329
*767 FILLER_17_335
*768 FILLER_17_337
*769 FILLER_17_349
*770 FILLER_17_361
*771 FILLER_17_373
*772 FILLER_17_385
*773 FILLER_17_39
*774 FILLER_17_391
*775 FILLER_17_393
*776 FILLER_17_405
*777 FILLER_17_51
*778 FILLER_17_55
*779 FILLER_17_57
*780 FILLER_17_69
*781 FILLER_17_77
*782 FILLER_17_92
*783 FILLER_18_109
*784 FILLER_18_121
*785 FILLER_18_133
*786 FILLER_18_139
*787 FILLER_18_141
*788 FILLER_18_15
*789 FILLER_18_153
*790 FILLER_18_157
*791 FILLER_18_169
*792 FILLER_18_181
*793 FILLER_18_193
*794 FILLER_18_197
*795 FILLER_18_209
*796 FILLER_18_223
*797 FILLER_18_235
*798 FILLER_18_247
*799 FILLER_18_251
*800 FILLER_18_253
*801 FILLER_18_265
*802 FILLER_18_27
*803 FILLER_18_277
*804 FILLER_18_289
*805 FILLER_18_29
*806 FILLER_18_3
*807 FILLER_18_301
*808 FILLER_18_307
*809 FILLER_18_309
*810 FILLER_18_321
*811 FILLER_18_333
*812 FILLER_18_345
*813 FILLER_18_357
*814 FILLER_18_363
*815 FILLER_18_365
*816 FILLER_18_377
*817 FILLER_18_389
*818 FILLER_18_401
*819 FILLER_18_41
*820 FILLER_18_53
*821 FILLER_18_65
*822 FILLER_18_73
*823 FILLER_18_83
*824 FILLER_18_85
*825 FILLER_18_97
*826 FILLER_19_103
*827 FILLER_19_111
*828 FILLER_19_126
*829 FILLER_19_135
*830 FILLER_19_15
*831 FILLER_19_152
*832 FILLER_19_164
*833 FILLER_19_169
*834 FILLER_19_181
*835 FILLER_19_193
*836 FILLER_19_205
*837 FILLER_19_217
*838 FILLER_19_225
*839 FILLER_19_237
*840 FILLER_19_249
*841 FILLER_19_261
*842 FILLER_19_27
*843 FILLER_19_273
*844 FILLER_19_279
*845 FILLER_19_281
*846 FILLER_19_293
*847 FILLER_19_3
*848 FILLER_19_305
*849 FILLER_19_317
*850 FILLER_19_329
*851 FILLER_19_335
*852 FILLER_19_337
*853 FILLER_19_349
*854 FILLER_19_361
*855 FILLER_19_373
*856 FILLER_19_385
*857 FILLER_19_39
*858 FILLER_19_391
*859 FILLER_19_393
*860 FILLER_19_405
*861 FILLER_19_51
*862 FILLER_19_55
*863 FILLER_19_57
*864 FILLER_19_69
*865 FILLER_19_77
*866 FILLER_19_89
*867 FILLER_19_95
*868 FILLER_1_105
*869 FILLER_1_111
*870 FILLER_1_113
*871 FILLER_1_125
*872 FILLER_1_137
*873 FILLER_1_149
*874 FILLER_1_15
*875 FILLER_1_161
*876 FILLER_1_167
*877 FILLER_1_169
*878 FILLER_1_181
*879 FILLER_1_193
*880 FILLER_1_205
*881 FILLER_1_217
*882 FILLER_1_223
*883 FILLER_1_225
*884 FILLER_1_237
*885 FILLER_1_249
*886 FILLER_1_261
*887 FILLER_1_27
*888 FILLER_1_273
*889 FILLER_1_279
*890 FILLER_1_281
*891 FILLER_1_293
*892 FILLER_1_3
*893 FILLER_1_305
*894 FILLER_1_317
*895 FILLER_1_329
*896 FILLER_1_335
*897 FILLER_1_337
*898 FILLER_1_349
*899 FILLER_1_361
*900 FILLER_1_373
*901 FILLER_1_385
*902 FILLER_1_39
*903 FILLER_1_391
*904 FILLER_1_393
*905 FILLER_1_405
*906 FILLER_1_51
*907 FILLER_1_55
*908 FILLER_1_57
*909 FILLER_1_69
*910 FILLER_1_81
*911 FILLER_1_93
*912 FILLER_20_110
*913 FILLER_20_122
*914 FILLER_20_134
*915 FILLER_20_141
*916 FILLER_20_15
*917 FILLER_20_153
*918 FILLER_20_166
*919 FILLER_20_178
*920 FILLER_20_190
*921 FILLER_20_197
*922 FILLER_20_209
*923 FILLER_20_217
*924 FILLER_20_240
*925 FILLER_20_253
*926 FILLER_20_265
*927 FILLER_20_27
*928 FILLER_20_277
*929 FILLER_20_289
*930 FILLER_20_29
*931 FILLER_20_3
*932 FILLER_20_301
*933 FILLER_20_307
*934 FILLER_20_309
*935 FILLER_20_321
*936 FILLER_20_333
*937 FILLER_20_345
*938 FILLER_20_357
*939 FILLER_20_363
*940 FILLER_20_365
*941 FILLER_20_377
*942 FILLER_20_389
*943 FILLER_20_401
*944 FILLER_20_41
*945 FILLER_20_53
*946 FILLER_20_65
*947 FILLER_20_78
*948 FILLER_20_90
*949 FILLER_20_98
*950 FILLER_21_100
*951 FILLER_21_113
*952 FILLER_21_125
*953 FILLER_21_137
*954 FILLER_21_149
*955 FILLER_21_15
*956 FILLER_21_161
*957 FILLER_21_167
*958 FILLER_21_169
*959 FILLER_21_181
*960 FILLER_21_193
*961 FILLER_21_205
*962 FILLER_21_213
*963 FILLER_21_222
*964 FILLER_21_225
*965 FILLER_21_237
*966 FILLER_21_249
*967 FILLER_21_261
*968 FILLER_21_27
*969 FILLER_21_273
*970 FILLER_21_279
*971 FILLER_21_288
*972 FILLER_21_3
*973 FILLER_21_300
*974 FILLER_21_312
*975 FILLER_21_324
*976 FILLER_21_337
*977 FILLER_21_349
*978 FILLER_21_361
*979 FILLER_21_373
*980 FILLER_21_385
*981 FILLER_21_39
*982 FILLER_21_391
*983 FILLER_21_393
*984 FILLER_21_405
*985 FILLER_21_51
*986 FILLER_21_55
*987 FILLER_21_57
*988 FILLER_21_71
*989 FILLER_21_84
*990 FILLER_21_92
*991 FILLER_22_102
*992 FILLER_22_114
*993 FILLER_22_126
*994 FILLER_22_138
*995 FILLER_22_141
*996 FILLER_22_15
*997 FILLER_22_153
*998 FILLER_22_165
*999 FILLER_22_177
*1000 FILLER_22_190
*1001 FILLER_22_197
*1002 FILLER_22_209
*1003 FILLER_22_217
*1004 FILLER_22_227
*1005 FILLER_22_239
*1006 FILLER_22_251
*1007 FILLER_22_253
*1008 FILLER_22_261
*1009 FILLER_22_27
*1010 FILLER_22_29
*1011 FILLER_22_299
*1012 FILLER_22_3
*1013 FILLER_22_307
*1014 FILLER_22_309
*1015 FILLER_22_321
*1016 FILLER_22_333
*1017 FILLER_22_345
*1018 FILLER_22_357
*1019 FILLER_22_363
*1020 FILLER_22_365
*1021 FILLER_22_37
*1022 FILLER_22_377
*1023 FILLER_22_389
*1024 FILLER_22_401
*1025 FILLER_22_43
*1026 FILLER_22_47
*1027 FILLER_22_64
*1028 FILLER_22_82
*1029 FILLER_22_85
*1030 FILLER_22_93
*1031 FILLER_23_105
*1032 FILLER_23_111
*1033 FILLER_23_113
*1034 FILLER_23_130
*1035 FILLER_23_142
*1036 FILLER_23_15
*1037 FILLER_23_150
*1038 FILLER_23_157
*1039 FILLER_23_165
*1040 FILLER_23_169
*1041 FILLER_23_181
*1042 FILLER_23_19
*1043 FILLER_23_194
*1044 FILLER_23_206
*1045 FILLER_23_220
*1046 FILLER_23_225
*1047 FILLER_23_237
*1048 FILLER_23_249
*1049 FILLER_23_261
*1050 FILLER_23_267
*1051 FILLER_23_273
*1052 FILLER_23_279
*1053 FILLER_23_281
*1054 FILLER_23_293
*1055 FILLER_23_3
*1056 FILLER_23_305
*1057 FILLER_23_317
*1058 FILLER_23_329
*1059 FILLER_23_335
*1060 FILLER_23_337
*1061 FILLER_23_349
*1062 FILLER_23_361
*1063 FILLER_23_373
*1064 FILLER_23_385
*1065 FILLER_23_391
*1066 FILLER_23_393
*1067 FILLER_23_405
*1068 FILLER_23_53
*1069 FILLER_23_57
*1070 FILLER_23_69
*1071 FILLER_23_81
*1072 FILLER_23_93
*1073 FILLER_24_109
*1074 FILLER_24_121
*1075 FILLER_24_133
*1076 FILLER_24_139
*1077 FILLER_24_141
*1078 FILLER_24_153
*1079 FILLER_24_164
*1080 FILLER_24_172
*1081 FILLER_24_176
*1082 FILLER_24_186
*1083 FILLER_24_194
*1084 FILLER_24_197
*1085 FILLER_24_205
*1086 FILLER_24_211
*1087 FILLER_24_223
*1088 FILLER_24_235
*1089 FILLER_24_247
*1090 FILLER_24_251
*1091 FILLER_24_253
*1092 FILLER_24_26
*1093 FILLER_24_265
*1094 FILLER_24_277
*1095 FILLER_24_289
*1096 FILLER_24_301
*1097 FILLER_24_307
*1098 FILLER_24_309
*1099 FILLER_24_32
*1100 FILLER_24_321
*1101 FILLER_24_333
*1102 FILLER_24_345
*1103 FILLER_24_357
*1104 FILLER_24_363
*1105 FILLER_24_365
*1106 FILLER_24_377
*1107 FILLER_24_389
*1108 FILLER_24_44
*1109 FILLER_24_52
*1110 FILLER_24_64
*1111 FILLER_24_7
*1112 FILLER_24_76
*1113 FILLER_24_85
*1114 FILLER_24_97
*1115 FILLER_25_101
*1116 FILLER_25_109
*1117 FILLER_25_113
*1118 FILLER_25_125
*1119 FILLER_25_137
*1120 FILLER_25_149
*1121 FILLER_25_15
*1122 FILLER_25_161
*1123 FILLER_25_167
*1124 FILLER_25_177
*1125 FILLER_25_186
*1126 FILLER_25_198
*1127 FILLER_25_206
*1128 FILLER_25_211
*1129 FILLER_25_223
*1130 FILLER_25_225
*1131 FILLER_25_23
*1132 FILLER_25_237
*1133 FILLER_25_249
*1134 FILLER_25_264
*1135 FILLER_25_276
*1136 FILLER_25_281
*1137 FILLER_25_293
*1138 FILLER_25_3
*1139 FILLER_25_301
*1140 FILLER_25_309
*1141 FILLER_25_321
*1142 FILLER_25_333
*1143 FILLER_25_337
*1144 FILLER_25_349
*1145 FILLER_25_35
*1146 FILLER_25_361
*1147 FILLER_25_373
*1148 FILLER_25_385
*1149 FILLER_25_391
*1150 FILLER_25_393
*1151 FILLER_25_405
*1152 FILLER_25_47
*1153 FILLER_25_55
*1154 FILLER_25_57
*1155 FILLER_25_65
*1156 FILLER_25_77
*1157 FILLER_25_89
*1158 FILLER_26_104
*1159 FILLER_26_112
*1160 FILLER_26_118
*1161 FILLER_26_130
*1162 FILLER_26_138
*1163 FILLER_26_141
*1164 FILLER_26_15
*1165 FILLER_26_153
*1166 FILLER_26_157
*1167 FILLER_26_168
*1168 FILLER_26_174
*1169 FILLER_26_186
*1170 FILLER_26_194
*1171 FILLER_26_197
*1172 FILLER_26_209
*1173 FILLER_26_221
*1174 FILLER_26_233
*1175 FILLER_26_245
*1176 FILLER_26_251
*1177 FILLER_26_253
*1178 FILLER_26_265
*1179 FILLER_26_27
*1180 FILLER_26_277
*1181 FILLER_26_289
*1182 FILLER_26_29
*1183 FILLER_26_3
*1184 FILLER_26_301
*1185 FILLER_26_307
*1186 FILLER_26_309
*1187 FILLER_26_321
*1188 FILLER_26_333
*1189 FILLER_26_345
*1190 FILLER_26_357
*1191 FILLER_26_363
*1192 FILLER_26_365
*1193 FILLER_26_377
*1194 FILLER_26_389
*1195 FILLER_26_397
*1196 FILLER_26_41
*1197 FILLER_26_53
*1198 FILLER_26_65
*1199 FILLER_26_77
*1200 FILLER_26_83
*1201 FILLER_26_85
*1202 FILLER_27_120
*1203 FILLER_27_132
*1204 FILLER_27_144
*1205 FILLER_27_156
*1206 FILLER_27_169
*1207 FILLER_27_181
*1208 FILLER_27_193
*1209 FILLER_27_205
*1210 FILLER_27_21
*1211 FILLER_27_220
*1212 FILLER_27_225
*1213 FILLER_27_233
*1214 FILLER_27_239
*1215 FILLER_27_247
*1216 FILLER_27_259
*1217 FILLER_27_263
*1218 FILLER_27_269
*1219 FILLER_27_277
*1220 FILLER_27_281
*1221 FILLER_27_293
*1222 FILLER_27_301
*1223 FILLER_27_316
*1224 FILLER_27_328
*1225 FILLER_27_33
*1226 FILLER_27_337
*1227 FILLER_27_349
*1228 FILLER_27_361
*1229 FILLER_27_373
*1230 FILLER_27_385
*1231 FILLER_27_391
*1232 FILLER_27_393
*1233 FILLER_27_405
*1234 FILLER_27_45
*1235 FILLER_27_53
*1236 FILLER_27_57
*1237 FILLER_27_69
*1238 FILLER_27_81
*1239 FILLER_27_89
*1240 FILLER_27_9
*1241 FILLER_28_112
*1242 FILLER_28_120
*1243 FILLER_28_132
*1244 FILLER_28_141
*1245 FILLER_28_15
*1246 FILLER_28_153
*1247 FILLER_28_170
*1248 FILLER_28_182
*1249 FILLER_28_194
*1250 FILLER_28_197
*1251 FILLER_28_209
*1252 FILLER_28_221
*1253 FILLER_28_236
*1254 FILLER_28_248
*1255 FILLER_28_253
*1256 FILLER_28_261
*1257 FILLER_28_27
*1258 FILLER_28_273
*1259 FILLER_28_29
*1260 FILLER_28_292
*1261 FILLER_28_3
*1262 FILLER_28_309
*1263 FILLER_28_321
*1264 FILLER_28_333
*1265 FILLER_28_345
*1266 FILLER_28_357
*1267 FILLER_28_363
*1268 FILLER_28_365
*1269 FILLER_28_377
*1270 FILLER_28_389
*1271 FILLER_28_401
*1272 FILLER_28_41
*1273 FILLER_28_53
*1274 FILLER_28_65
*1275 FILLER_28_73
*1276 FILLER_28_81
*1277 FILLER_28_85
*1278 FILLER_28_89
*1279 FILLER_29_102
*1280 FILLER_29_110
*1281 FILLER_29_113
*1282 FILLER_29_125
*1283 FILLER_29_137
*1284 FILLER_29_149
*1285 FILLER_29_161
*1286 FILLER_29_167
*1287 FILLER_29_169
*1288 FILLER_29_181
*1289 FILLER_29_19
*1290 FILLER_29_193
*1291 FILLER_29_205
*1292 FILLER_29_222
*1293 FILLER_29_228
*1294 FILLER_29_240
*1295 FILLER_29_252
*1296 FILLER_29_264
*1297 FILLER_29_276
*1298 FILLER_29_281
*1299 FILLER_29_293
*1300 FILLER_29_305
*1301 FILLER_29_31
*1302 FILLER_29_317
*1303 FILLER_29_329
*1304 FILLER_29_335
*1305 FILLER_29_337
*1306 FILLER_29_349
*1307 FILLER_29_361
*1308 FILLER_29_373
*1309 FILLER_29_385
*1310 FILLER_29_391
*1311 FILLER_29_393
*1312 FILLER_29_405
*1313 FILLER_29_43
*1314 FILLER_29_55
*1315 FILLER_29_57
*1316 FILLER_29_66
*1317 FILLER_29_7
*1318 FILLER_29_78
*1319 FILLER_29_90
*1320 FILLER_2_109
*1321 FILLER_2_121
*1322 FILLER_2_133
*1323 FILLER_2_139
*1324 FILLER_2_141
*1325 FILLER_2_15
*1326 FILLER_2_153
*1327 FILLER_2_165
*1328 FILLER_2_177
*1329 FILLER_2_189
*1330 FILLER_2_195
*1331 FILLER_2_197
*1332 FILLER_2_209
*1333 FILLER_2_221
*1334 FILLER_2_233
*1335 FILLER_2_245
*1336 FILLER_2_251
*1337 FILLER_2_253
*1338 FILLER_2_265
*1339 FILLER_2_27
*1340 FILLER_2_277
*1341 FILLER_2_289
*1342 FILLER_2_29
*1343 FILLER_2_3
*1344 FILLER_2_301
*1345 FILLER_2_307
*1346 FILLER_2_309
*1347 FILLER_2_321
*1348 FILLER_2_333
*1349 FILLER_2_345
*1350 FILLER_2_357
*1351 FILLER_2_363
*1352 FILLER_2_365
*1353 FILLER_2_377
*1354 FILLER_2_389
*1355 FILLER_2_401
*1356 FILLER_2_41
*1357 FILLER_2_53
*1358 FILLER_2_65
*1359 FILLER_2_77
*1360 FILLER_2_83
*1361 FILLER_2_85
*1362 FILLER_2_97
*1363 FILLER_30_105
*1364 FILLER_30_113
*1365 FILLER_30_125
*1366 FILLER_30_137
*1367 FILLER_30_141
*1368 FILLER_30_153
*1369 FILLER_30_165
*1370 FILLER_30_177
*1371 FILLER_30_185
*1372 FILLER_30_195
*1373 FILLER_30_197
*1374 FILLER_30_209
*1375 FILLER_30_221
*1376 FILLER_30_233
*1377 FILLER_30_245
*1378 FILLER_30_251
*1379 FILLER_30_253
*1380 FILLER_30_26
*1381 FILLER_30_265
*1382 FILLER_30_277
*1383 FILLER_30_289
*1384 FILLER_30_29
*1385 FILLER_30_301
*1386 FILLER_30_307
*1387 FILLER_30_309
*1388 FILLER_30_321
*1389 FILLER_30_333
*1390 FILLER_30_345
*1391 FILLER_30_357
*1392 FILLER_30_363
*1393 FILLER_30_365
*1394 FILLER_30_377
*1395 FILLER_30_389
*1396 FILLER_30_401
*1397 FILLER_30_41
*1398 FILLER_30_53
*1399 FILLER_30_7
*1400 FILLER_30_77
*1401 FILLER_30_83
*1402 FILLER_30_85
*1403 FILLER_30_97
*1404 FILLER_31_106
*1405 FILLER_31_113
*1406 FILLER_31_125
*1407 FILLER_31_137
*1408 FILLER_31_149
*1409 FILLER_31_174
*1410 FILLER_31_184
*1411 FILLER_31_190
*1412 FILLER_31_196
*1413 FILLER_31_20
*1414 FILLER_31_208
*1415 FILLER_31_220
*1416 FILLER_31_225
*1417 FILLER_31_237
*1418 FILLER_31_24
*1419 FILLER_31_249
*1420 FILLER_31_261
*1421 FILLER_31_273
*1422 FILLER_31_279
*1423 FILLER_31_281
*1424 FILLER_31_293
*1425 FILLER_31_305
*1426 FILLER_31_317
*1427 FILLER_31_329
*1428 FILLER_31_335
*1429 FILLER_31_337
*1430 FILLER_31_349
*1431 FILLER_31_361
*1432 FILLER_31_373
*1433 FILLER_31_385
*1434 FILLER_31_391
*1435 FILLER_31_393
*1436 FILLER_31_405
*1437 FILLER_31_42
*1438 FILLER_31_54
*1439 FILLER_31_57
*1440 FILLER_31_7
*1441 FILLER_31_82
*1442 FILLER_31_94
*1443 FILLER_32_102
*1444 FILLER_32_114
*1445 FILLER_32_126
*1446 FILLER_32_138
*1447 FILLER_32_141
*1448 FILLER_32_164
*1449 FILLER_32_188
*1450 FILLER_32_202
*1451 FILLER_32_215
*1452 FILLER_32_227
*1453 FILLER_32_231
*1454 FILLER_32_24
*1455 FILLER_32_244
*1456 FILLER_32_253
*1457 FILLER_32_265
*1458 FILLER_32_277
*1459 FILLER_32_289
*1460 FILLER_32_29
*1461 FILLER_32_3
*1462 FILLER_32_301
*1463 FILLER_32_307
*1464 FILLER_32_309
*1465 FILLER_32_321
*1466 FILLER_32_333
*1467 FILLER_32_345
*1468 FILLER_32_357
*1469 FILLER_32_363
*1470 FILLER_32_365
*1471 FILLER_32_377
*1472 FILLER_32_389
*1473 FILLER_32_401
*1474 FILLER_32_59
*1475 FILLER_32_80
*1476 FILLER_32_85
*1477 FILLER_32_97
*1478 FILLER_33_110
*1479 FILLER_33_113
*1480 FILLER_33_125
*1481 FILLER_33_137
*1482 FILLER_33_149
*1483 FILLER_33_156
*1484 FILLER_33_166
*1485 FILLER_33_177
*1486 FILLER_33_189
*1487 FILLER_33_199
*1488 FILLER_33_206
*1489 FILLER_33_218
*1490 FILLER_33_225
*1491 FILLER_33_237
*1492 FILLER_33_256
*1493 FILLER_33_268
*1494 FILLER_33_275
*1495 FILLER_33_279
*1496 FILLER_33_281
*1497 FILLER_33_285
*1498 FILLER_33_299
*1499 FILLER_33_3
*1500 FILLER_33_311
*1501 FILLER_33_323
*1502 FILLER_33_335
*1503 FILLER_33_337
*1504 FILLER_33_349
*1505 FILLER_33_361
*1506 FILLER_33_373
*1507 FILLER_33_385
*1508 FILLER_33_391
*1509 FILLER_33_393
*1510 FILLER_33_405
*1511 FILLER_33_44
*1512 FILLER_33_48
*1513 FILLER_33_57
*1514 FILLER_33_74
*1515 FILLER_33_86
*1516 FILLER_33_9
*1517 FILLER_33_98
*1518 FILLER_34_110
*1519 FILLER_34_118
*1520 FILLER_34_124
*1521 FILLER_34_136
*1522 FILLER_34_141
*1523 FILLER_34_153
*1524 FILLER_34_165
*1525 FILLER_34_177
*1526 FILLER_34_189
*1527 FILLER_34_195
*1528 FILLER_34_197
*1529 FILLER_34_209
*1530 FILLER_34_221
*1531 FILLER_34_233
*1532 FILLER_34_243
*1533 FILLER_34_25
*1534 FILLER_34_251
*1535 FILLER_34_253
*1536 FILLER_34_275
*1537 FILLER_34_281
*1538 FILLER_34_293
*1539 FILLER_34_3
*1540 FILLER_34_305
*1541 FILLER_34_309
*1542 FILLER_34_321
*1543 FILLER_34_333
*1544 FILLER_34_345
*1545 FILLER_34_357
*1546 FILLER_34_363
*1547 FILLER_34_365
*1548 FILLER_34_377
*1549 FILLER_34_389
*1550 FILLER_34_40
*1551 FILLER_34_401
*1552 FILLER_34_52
*1553 FILLER_34_63
*1554 FILLER_34_75
*1555 FILLER_34_83
*1556 FILLER_34_92
*1557 FILLER_34_98
*1558 FILLER_35_109
*1559 FILLER_35_11
*1560 FILLER_35_121
*1561 FILLER_35_133
*1562 FILLER_35_145
*1563 FILLER_35_157
*1564 FILLER_35_165
*1565 FILLER_35_169
*1566 FILLER_35_181
*1567 FILLER_35_19
*1568 FILLER_35_193
*1569 FILLER_35_205
*1570 FILLER_35_217
*1571 FILLER_35_223
*1572 FILLER_35_225
*1573 FILLER_35_237
*1574 FILLER_35_249
*1575 FILLER_35_261
*1576 FILLER_35_273
*1577 FILLER_35_279
*1578 FILLER_35_281
*1579 FILLER_35_293
*1580 FILLER_35_3
*1581 FILLER_35_305
*1582 FILLER_35_31
*1583 FILLER_35_317
*1584 FILLER_35_329
*1585 FILLER_35_335
*1586 FILLER_35_337
*1587 FILLER_35_349
*1588 FILLER_35_361
*1589 FILLER_35_373
*1590 FILLER_35_385
*1591 FILLER_35_391
*1592 FILLER_35_393
*1593 FILLER_35_397
*1594 FILLER_35_43
*1595 FILLER_35_55
*1596 FILLER_35_57
*1597 FILLER_35_69
*1598 FILLER_35_81
*1599 FILLER_35_93
*1600 FILLER_36_104
*1601 FILLER_36_116
*1602 FILLER_36_12
*1603 FILLER_36_128
*1604 FILLER_36_139
*1605 FILLER_36_141
*1606 FILLER_36_145
*1607 FILLER_36_149
*1608 FILLER_36_161
*1609 FILLER_36_167
*1610 FILLER_36_179
*1611 FILLER_36_191
*1612 FILLER_36_195
*1613 FILLER_36_197
*1614 FILLER_36_205
*1615 FILLER_36_225
*1616 FILLER_36_233
*1617 FILLER_36_24
*1618 FILLER_36_245
*1619 FILLER_36_251
*1620 FILLER_36_253
*1621 FILLER_36_265
*1622 FILLER_36_277
*1623 FILLER_36_289
*1624 FILLER_36_29
*1625 FILLER_36_301
*1626 FILLER_36_307
*1627 FILLER_36_312
*1628 FILLER_36_326
*1629 FILLER_36_338
*1630 FILLER_36_350
*1631 FILLER_36_362
*1632 FILLER_36_365
*1633 FILLER_36_377
*1634 FILLER_36_389
*1635 FILLER_36_401
*1636 FILLER_36_41
*1637 FILLER_36_53
*1638 FILLER_36_57
*1639 FILLER_36_61
*1640 FILLER_36_73
*1641 FILLER_36_85
*1642 FILLER_36_97
*1643 FILLER_37_105
*1644 FILLER_37_111
*1645 FILLER_37_113
*1646 FILLER_37_12
*1647 FILLER_37_125
*1648 FILLER_37_138
*1649 FILLER_37_150
*1650 FILLER_37_162
*1651 FILLER_37_169
*1652 FILLER_37_181
*1653 FILLER_37_193
*1654 FILLER_37_205
*1655 FILLER_37_225
*1656 FILLER_37_24
*1657 FILLER_37_244
*1658 FILLER_37_256
*1659 FILLER_37_268
*1660 FILLER_37_281
*1661 FILLER_37_293
*1662 FILLER_37_305
*1663 FILLER_37_317
*1664 FILLER_37_329
*1665 FILLER_37_335
*1666 FILLER_37_337
*1667 FILLER_37_349
*1668 FILLER_37_36
*1669 FILLER_37_361
*1670 FILLER_37_373
*1671 FILLER_37_385
*1672 FILLER_37_391
*1673 FILLER_37_393
*1674 FILLER_37_405
*1675 FILLER_37_48
*1676 FILLER_37_57
*1677 FILLER_37_69
*1678 FILLER_37_81
*1679 FILLER_37_93
*1680 FILLER_38_102
*1681 FILLER_38_114
*1682 FILLER_38_120
*1683 FILLER_38_128
*1684 FILLER_38_141
*1685 FILLER_38_15
*1686 FILLER_38_153
*1687 FILLER_38_165
*1688 FILLER_38_177
*1689 FILLER_38_189
*1690 FILLER_38_195
*1691 FILLER_38_197
*1692 FILLER_38_209
*1693 FILLER_38_221
*1694 FILLER_38_233
*1695 FILLER_38_245
*1696 FILLER_38_251
*1697 FILLER_38_253
*1698 FILLER_38_265
*1699 FILLER_38_27
*1700 FILLER_38_277
*1701 FILLER_38_289
*1702 FILLER_38_29
*1703 FILLER_38_3
*1704 FILLER_38_301
*1705 FILLER_38_307
*1706 FILLER_38_309
*1707 FILLER_38_321
*1708 FILLER_38_333
*1709 FILLER_38_345
*1710 FILLER_38_357
*1711 FILLER_38_363
*1712 FILLER_38_365
*1713 FILLER_38_377
*1714 FILLER_38_389
*1715 FILLER_38_401
*1716 FILLER_38_41
*1717 FILLER_38_53
*1718 FILLER_38_57
*1719 FILLER_38_77