*SPEF "ieee 1481-1999"
*DESIGN "mult8_2bits_2op_e2485"
*DATE "12:28:14 Wednesday September 17, 2025"
*VENDOR "The OpenROAD Project"
*PROGRAM "OpenROAD"
*VERSION "edf00dff99f6c40d67a30c0e22a8191c5d2ed9d6"
*DESIGN_FLOW "NAME_SCOPE LOCAL" "PIN_CAP NONE"
*DIVIDER /
*DELIMITER :
*BUS_DELIMITER []
*T_UNIT 1 NS
*C_UNIT 1 PF
*R_UNIT 1 OHM
*L_UNIT 1 HENRY

*NAME_MAP
*1 A[0]
*2 A[1]
*3 A[2]
*4 A[3]
*5 A[4]
*6 A[5]
*7 A[6]
*8 A[7]
*9 B[0]
*10 B[1]
*11 B[2]
*12 B[3]
*13 B[4]
*14 B[5]
*15 B[6]
*16 B[7]
*17 net56
*18 P[10]
*19 P[11]
*20 P[12]
*21 P[13]
*22 P[14]
*23 P[15]
*24 P[1]
*25 P[2]
*26 P[3]
*27 P[4]
*28 P[5]
*29 P[6]
*30 P[7]
*31 P[8]
*32 P[9]
*35 _000_
*36 _001_
*37 _002_
*38 _003_
*39 _004_
*40 _005_
*41 _006_
*42 _007_
*43 _008_
*44 _009_
*45 _010_
*46 _011_
*47 _012_
*48 _013_
*49 _014_
*50 _015_
*51 _016_
*52 _017_
*53 _018_
*54 _019_
*55 _020_
*56 _021_
*57 _022_
*58 _023_
*59 _024_
*60 _025_
*61 _026_
*62 _027_
*63 _028_
*64 _029_
*65 _030_
*66 _031_
*67 _032_
*68 _033_
*69 _034_
*70 _035_
*71 _036_
*72 _037_
*73 _038_
*74 _039_
*75 _040_
*76 _041_
*77 _042_
*78 _043_
*79 _044_
*80 _045_
*81 _046_
*82 _047_
*83 _048_
*84 _049_
*85 _050_
*86 _051_
*87 _052_
*88 _053_
*89 _054_
*90 _055_
*91 _056_
*92 _057_
*93 _058_
*94 _059_
*95 _060_
*96 _061_
*97 _062_
*98 _063_
*99 _064_
*100 _065_
*101 _066_
*102 _067_
*103 _068_
*104 _069_
*105 _070_
*106 _071_
*107 _072_
*108 _073_
*109 _074_
*110 _075_
*111 _076_
*112 _077_
*113 _078_
*114 _079_
*115 _080_
*116 _081_
*117 _082_
*118 _083_
*119 _084_
*120 _085_
*121 _086_
*122 _087_
*123 _088_
*124 _089_
*125 _090_
*126 _091_
*127 _092_
*128 _093_
*129 _094_
*130 _095_
*131 _096_
*132 _097_
*133 _098_
*134 _099_
*135 _100_
*136 _101_
*137 _102_
*138 _103_
*139 _104_
*140 _105_
*141 _106_
*142 _107_
*143 _108_
*144 _109_
*145 _110_
*146 _111_
*147 _112_
*148 _113_
*149 _114_
*150 _115_
*151 _116_
*152 _117_
*153 _118_
*154 _119_
*155 _120_
*156 _121_
*157 _122_
*158 _123_
*159 _124_
*160 _125_
*161 _126_
*162 _127_
*163 _128_
*164 _129_
*165 _130_
*166 _131_
*167 _132_
*168 _133_
*169 _134_
*170 _135_
*171 _136_
*172 _137_
*173 _138_
*174 _139_
*175 _140_
*176 _141_
*177 _142_
*178 _143_
*179 _144_
*180 _145_
*181 _146_
*182 _147_
*183 _148_
*184 _149_
*185 _150_
*186 _151_
*187 _152_
*188 _153_
*189 _154_
*190 _155_
*191 _156_
*192 _157_
*193 _158_
*194 _159_
*195 _160_
*196 _161_
*197 _162_
*198 _163_
*199 _164_
*200 _165_
*201 _166_
*202 _167_
*203 _168_
*204 _169_
*205 _170_
*206 _171_
*207 _172_
*208 _173_
*209 _174_
*210 _175_
*211 _176_
*212 _177_
*213 _178_
*214 _179_
*215 _180_
*216 _181_
*217 _182_
*218 _183_
*219 _184_
*220 _185_
*221 _186_
*222 _187_
*223 _188_
*224 _189_
*225 _190_
*226 _191_
*227 _192_
*228 _193_
*229 _194_
*230 _195_
*231 _196_
*232 _197_
*233 _198_
*234 _199_
*235 _200_
*236 _201_
*237 _202_
*238 _203_
*239 _204_
*240 _205_
*241 _206_
*242 _207_
*243 _208_
*244 _209_
*245 _210_
*246 _211_
*247 _212_
*248 _213_
*249 _214_
*250 _215_
*251 _216_
*252 _217_
*253 _218_
*254 _219_
*255 _220_
*256 _221_
*257 _222_
*258 _223_
*259 _224_
*260 _225_
*261 _226_
*262 _227_
*263 _228_
*264 _229_
*265 _230_
*266 _231_
*267 _232_
*268 _233_
*269 _234_
*270 _235_
*271 _236_
*272 _237_
*273 _238_
*274 _239_
*275 _240_
*276 _241_
*277 _242_
*278 _243_
*279 _244_
*280 _245_
*281 _246_
*282 _247_
*283 _248_
*284 _249_
*285 _250_
*286 _251_
*287 _252_
*288 _253_
*289 _254_
*290 _255_
*291 _256_
*292 _257_
*293 _258_
*294 _259_
*295 _260_
*296 _261_
*297 _262_
*298 _263_
*299 _264_
*300 _265_
*301 _266_
*302 _267_
*303 _268_
*304 _269_
*305 _270_
*306 _271_
*307 _272_
*308 _273_
*309 _274_
*310 _275_
*311 _276_
*312 _277_
*313 _278_
*314 net1
*315 net10
*316 net11
*317 net12
*318 net13
*319 net14
*320 net15
*321 net16
*322 net17
*323 net18
*324 net19
*325 net2
*326 net20
*327 net21
*328 net22
*329 net23
*330 net24
*331 net25
*332 net26
*333 net27
*334 net28
*335 net29
*336 net3
*337 net30
*338 net31
*339 net32
*340 net33
*341 net34
*342 net35
*343 net36
*344 net37
*345 net38
*346 net39
*347 net4
*348 net40
*349 net41
*350 net42
*351 net43
*352 net44
*353 net45
*354 net46
*355 net47
*356 net48
*357 net49
*358 net5
*359 net50
*360 net51
*361 net52
*362 net53
*363 net54
*364 net55
*365 net57
*366 net58
*367 net59
*368 net6
*369 net62
*370 net63
*371 net7
*372 net75
*373 net8
*374 net9
*375 FILLER_0_109
*376 FILLER_0_113
*377 FILLER_0_121
*378 FILLER_0_125
*379 FILLER_0_132
*380 FILLER_0_141
*381 FILLER_0_147
*382 FILLER_0_15
*383 FILLER_0_153
*384 FILLER_0_161
*385 FILLER_0_169
*386 FILLER_0_174
*387 FILLER_0_181
*388 FILLER_0_193
*389 FILLER_0_197
*390 FILLER_0_209
*391 FILLER_0_221
*392 FILLER_0_225
*393 FILLER_0_237
*394 FILLER_0_249
*395 FILLER_0_253
*396 FILLER_0_265
*397 FILLER_0_27
*398 FILLER_0_277
*399 FILLER_0_281
*400 FILLER_0_287
*401 FILLER_0_29
*402 FILLER_0_294
*403 FILLER_0_3
*404 FILLER_0_306
*405 FILLER_0_309
*406 FILLER_0_321
*407 FILLER_0_333
*408 FILLER_0_337
*409 FILLER_0_349
*410 FILLER_0_361
*411 FILLER_0_365
*412 FILLER_0_377
*413 FILLER_0_389
*414 FILLER_0_393
*415 FILLER_0_405
*416 FILLER_0_41
*417 FILLER_0_53
*418 FILLER_0_57
*419 FILLER_0_69
*420 FILLER_0_81
*421 FILLER_0_85
*422 FILLER_0_97
*423 FILLER_10_109
*424 FILLER_10_121
*425 FILLER_10_133
*426 FILLER_10_139
*427 FILLER_10_15
*428 FILLER_10_154
*429 FILLER_10_166
*430 FILLER_10_178
*431 FILLER_10_190
*432 FILLER_10_197
*433 FILLER_10_209
*434 FILLER_10_236
*435 FILLER_10_248
*436 FILLER_10_261
*437 FILLER_10_27
*438 FILLER_10_273
*439 FILLER_10_285
*440 FILLER_10_29
*441 FILLER_10_297
*442 FILLER_10_3
*443 FILLER_10_305
*444 FILLER_10_309
*445 FILLER_10_321
*446 FILLER_10_333
*447 FILLER_10_345
*448 FILLER_10_357
*449 FILLER_10_363
*450 FILLER_10_365
*451 FILLER_10_377
*452 FILLER_10_389
*453 FILLER_10_401
*454 FILLER_10_41
*455 FILLER_10_53
*456 FILLER_10_65
*457 FILLER_10_77
*458 FILLER_10_83
*459 FILLER_10_85
*460 FILLER_10_97
*461 FILLER_11_101
*462 FILLER_11_107
*463 FILLER_11_111
*464 FILLER_11_113
*465 FILLER_11_125
*466 FILLER_11_137
*467 FILLER_11_149
*468 FILLER_11_15
*469 FILLER_11_161
*470 FILLER_11_167
*471 FILLER_11_169
*472 FILLER_11_177
*473 FILLER_11_192
*474 FILLER_11_204
*475 FILLER_11_216
*476 FILLER_11_234
*477 FILLER_11_246
*478 FILLER_11_258
*479 FILLER_11_27
*480 FILLER_11_270
*481 FILLER_11_278
*482 FILLER_11_281
*483 FILLER_11_293
*484 FILLER_11_3
*485 FILLER_11_305
*486 FILLER_11_317
*487 FILLER_11_329
*488 FILLER_11_335
*489 FILLER_11_337
*490 FILLER_11_349
*491 FILLER_11_361
*492 FILLER_11_373
*493 FILLER_11_385
*494 FILLER_11_39
*495 FILLER_11_391
*496 FILLER_11_393
*497 FILLER_11_405
*498 FILLER_11_51
*499 FILLER_11_55
*500 FILLER_11_57
*501 FILLER_11_69
*502 FILLER_11_81
*503 FILLER_11_93
*504 FILLER_12_119
*505 FILLER_12_131
*506 FILLER_12_139
*507 FILLER_12_141
*508 FILLER_12_15
*509 FILLER_12_153
*510 FILLER_12_165
*511 FILLER_12_169
*512 FILLER_12_177
*513 FILLER_12_190
*514 FILLER_12_197
*515 FILLER_12_209
*516 FILLER_12_221
*517 FILLER_12_233
*518 FILLER_12_245
*519 FILLER_12_251
*520 FILLER_12_260
*521 FILLER_12_27
*522 FILLER_12_272
*523 FILLER_12_284
*524 FILLER_12_29
*525 FILLER_12_296
*526 FILLER_12_3
*527 FILLER_12_309
*528 FILLER_12_321
*529 FILLER_12_333
*530 FILLER_12_345
*531 FILLER_12_357
*532 FILLER_12_363
*533 FILLER_12_365
*534 FILLER_12_377
*535 FILLER_12_389
*536 FILLER_12_401
*537 FILLER_12_41
*538 FILLER_12_53
*539 FILLER_12_65
*540 FILLER_12_77
*541 FILLER_12_83
*542 FILLER_12_85
*543 FILLER_12_93
*544 FILLER_13_110
*545 FILLER_13_120
*546 FILLER_13_132
*547 FILLER_13_144
*548 FILLER_13_15
*549 FILLER_13_156
*550 FILLER_13_162
*551 FILLER_13_166
*552 FILLER_13_169
*553 FILLER_13_183
*554 FILLER_13_196
*555 FILLER_13_208
*556 FILLER_13_220
*557 FILLER_13_228
*558 FILLER_13_240
*559 FILLER_13_248
*560 FILLER_13_262
*561 FILLER_13_27
*562 FILLER_13_274
*563 FILLER_13_281
*564 FILLER_13_293
*565 FILLER_13_3
*566 FILLER_13_305
*567 FILLER_13_317
*568 FILLER_13_329
*569 FILLER_13_335
*570 FILLER_13_337
*571 FILLER_13_349
*572 FILLER_13_361
*573 FILLER_13_373
*574 FILLER_13_385
*575 FILLER_13_39
*576 FILLER_13_391
*577 FILLER_13_393
*578 FILLER_13_405
*579 FILLER_13_51
*580 FILLER_13_55
*581 FILLER_13_57
*582 FILLER_13_69
*583 FILLER_13_81
*584 FILLER_13_93
*585 FILLER_14_104
*586 FILLER_14_116
*587 FILLER_14_128
*588 FILLER_14_141
*589 FILLER_14_15
*590 FILLER_14_164
*591 FILLER_14_176
*592 FILLER_14_191
*593 FILLER_14_195
*594 FILLER_14_214
*595 FILLER_14_226
*596 FILLER_14_232
*597 FILLER_14_244
*598 FILLER_14_253
*599 FILLER_14_265
*600 FILLER_14_27
*601 FILLER_14_277
*602 FILLER_14_289
*603 FILLER_14_29
*604 FILLER_14_3
*605 FILLER_14_301
*606 FILLER_14_307
*607 FILLER_14_309
*608 FILLER_14_321
*609 FILLER_14_333
*610 FILLER_14_345
*611 FILLER_14_357
*612 FILLER_14_363
*613 FILLER_14_365
*614 FILLER_14_377
*615 FILLER_14_389
*616 FILLER_14_401
*617 FILLER_14_41
*618 FILLER_14_53
*619 FILLER_14_65
*620 FILLER_14_77
*621 FILLER_14_83
*622 FILLER_14_85
*623 FILLER_14_97
*624 FILLER_15_113
*625 FILLER_15_125
*626 FILLER_15_137
*627 FILLER_15_15
*628 FILLER_15_163
*629 FILLER_15_167
*630 FILLER_15_169
*631 FILLER_15_181
*632 FILLER_15_193
*633 FILLER_15_205
*634 FILLER_15_217
*635 FILLER_15_222
*636 FILLER_15_225
*637 FILLER_15_237
*638 FILLER_15_249
*639 FILLER_15_258
*640 FILLER_15_266
*641 FILLER_15_27
*642 FILLER_15_275
*643 FILLER_15_279
*644 FILLER_15_281
*645 FILLER_15_289
*646 FILLER_15_296
*647 FILLER_15_3
*648 FILLER_15_308
*649 FILLER_15_320
*650 FILLER_15_332
*651 FILLER_15_337
*652 FILLER_15_349
*653 FILLER_15_361
*654 FILLER_15_373
*655 FILLER_15_385
*656 FILLER_15_39
*657 FILLER_15_391
*658 FILLER_15_393
*659 FILLER_15_405
*660 FILLER_15_51
*661 FILLER_15_55
*662 FILLER_15_57
*663 FILLER_15_69
*664 FILLER_15_81
*665 FILLER_15_93
*666 FILLER_16_126
*667 FILLER_16_138
*668 FILLER_16_141
*669 FILLER_16_15
*670 FILLER_16_153
*671 FILLER_16_161
*672 FILLER_16_175
*673 FILLER_16_187
*674 FILLER_16_195
*675 FILLER_16_197
*676 FILLER_16_209
*677 FILLER_16_221
*678 FILLER_16_229
*679 FILLER_16_237
*680 FILLER_16_245
*681 FILLER_16_253
*682 FILLER_16_269
*683 FILLER_16_27
*684 FILLER_16_277
*685 FILLER_16_29
*686 FILLER_16_291
*687 FILLER_16_3
*688 FILLER_16_306
*689 FILLER_16_309
*690 FILLER_16_321
*691 FILLER_16_333
*692 FILLER_16_345
*693 FILLER_16_357
*694 FILLER_16_363
*695 FILLER_16_365
*696 FILLER_16_377
*697 FILLER_16_389
*698 FILLER_16_397
*699 FILLER_16_41
*700 FILLER_16_53
*701 FILLER_16_65
*702 FILLER_16_77
*703 FILLER_16_83
*704 FILLER_16_85
*705 FILLER_16_97
*706 FILLER_17_105
*707 FILLER_17_111
*708 FILLER_17_113
*709 FILLER_17_125
*710 FILLER_17_137
*711 FILLER_17_149
*712 FILLER_17_15
*713 FILLER_17_169
*714 FILLER_17_181
*715 FILLER_17_193
*716 FILLER_17_205
*717 FILLER_17_217
*718 FILLER_17_223
*719 FILLER_17_225
*720 FILLER_17_237
*721 FILLER_17_249
*722 FILLER_17_261
*723 FILLER_17_267
*724 FILLER_17_27
*725 FILLER_17_272
*726 FILLER_17_278
*727 FILLER_17_281
*728 FILLER_17_293
*729 FILLER_17_3
*730 FILLER_17_305
*731 FILLER_17_317
*732 FILLER_17_329
*733 FILLER_17_335
*734 FILLER_17_337
*735 FILLER_17_349
*736 FILLER_17_361
*737 FILLER_17_373
*738 FILLER_17_385
*739 FILLER_17_39
*740 FILLER_17_391
*741 FILLER_17_393
*742 FILLER_17_405
*743 FILLER_17_51
*744 FILLER_17_55
*745 FILLER_17_57
*746 FILLER_17_69
*747 FILLER_17_81
*748 FILLER_17_93
*749 FILLER_18_109
*750 FILLER_18_121
*751 FILLER_18_133
*752 FILLER_18_139
*753 FILLER_18_141
*754 FILLER_18_146
*755 FILLER_18_15
*756 FILLER_18_158
*757 FILLER_18_170
*758 FILLER_18_182
*759 FILLER_18_194
*760 FILLER_18_197
*761 FILLER_18_209
*762 FILLER_18_228
*763 FILLER_18_240
*764 FILLER_18_253
*765 FILLER_18_265
*766 FILLER_18_27
*767 FILLER_18_276
*768 FILLER_18_282
*769 FILLER_18_289
*770 FILLER_18_29
*771 FILLER_18_3
*772 FILLER_18_301
*773 FILLER_18_307
*774 FILLER_18_309
*775 FILLER_18_321
*776 FILLER_18_333
*777 FILLER_18_345
*778 FILLER_18_357
*779 FILLER_18_363
*780 FILLER_18_365
*781 FILLER_18_377
*782 FILLER_18_389
*783 FILLER_18_401
*784 FILLER_18_41
*785 FILLER_18_53
*786 FILLER_18_65
*787 FILLER_18_77
*788 FILLER_18_83
*789 FILLER_18_85
*790 FILLER_18_97
*791 FILLER_19_105
*792 FILLER_19_111
*793 FILLER_19_113
*794 FILLER_19_125
*795 FILLER_19_137
*796 FILLER_19_15
*797 FILLER_19_165
*798 FILLER_19_169
*799 FILLER_19_181
*800 FILLER_19_193
*801 FILLER_19_205
*802 FILLER_19_217
*803 FILLER_19_223
*804 FILLER_19_225
*805 FILLER_19_237
*806 FILLER_19_249
*807 FILLER_19_261
*808 FILLER_19_27
*809 FILLER_19_273
*810 FILLER_19_279
*811 FILLER_19_281
*812 FILLER_19_293
*813 FILLER_19_3
*814 FILLER_19_305
*815 FILLER_19_317
*816 FILLER_19_329
*817 FILLER_19_335
*818 FILLER_19_337
*819 FILLER_19_349
*820 FILLER_19_361
*821 FILLER_19_373
*822 FILLER_19_385
*823 FILLER_19_39
*824 FILLER_19_391
*825 FILLER_19_393
*826 FILLER_19_405
*827 FILLER_19_51
*828 FILLER_19_55
*829 FILLER_19_57
*830 FILLER_19_69
*831 FILLER_19_81
*832 FILLER_19_93
*833 FILLER_1_105
*834 FILLER_1_111
*835 FILLER_1_113
*836 FILLER_1_125
*837 FILLER_1_137
*838 FILLER_1_149
*839 FILLER_1_15
*840 FILLER_1_161
*841 FILLER_1_167
*842 FILLER_1_169
*843 FILLER_1_181
*844 FILLER_1_193
*845 FILLER_1_205
*846 FILLER_1_217
*847 FILLER_1_223
*848 FILLER_1_225
*849 FILLER_1_237
*850 FILLER_1_249
*851 FILLER_1_261
*852 FILLER_1_27
*853 FILLER_1_273
*854 FILLER_1_279
*855 FILLER_1_281
*856 FILLER_1_293
*857 FILLER_1_3
*858 FILLER_1_305
*859 FILLER_1_317
*860 FILLER_1_329
*861 FILLER_1_335
*862 FILLER_1_337
*863 FILLER_1_349
*864 FILLER_1_361
*865 FILLER_1_373
*866 FILLER_1_385
*867 FILLER_1_39
*868 FILLER_1_391
*869 FILLER_1_393
*870 FILLER_1_405
*871 FILLER_1_51
*872 FILLER_1_55
*873 FILLER_1_57
*874 FILLER_1_69
*875 FILLER_1_81
*876 FILLER_1_93
*877 FILLER_20_104
*878 FILLER_20_116
*879 FILLER_20_128
*880 FILLER_20_141
*881 FILLER_20_15
*882 FILLER_20_167
*883 FILLER_20_179
*884 FILLER_20_191
*885 FILLER_20_195
*886 FILLER_20_197
*887 FILLER_20_214
*888 FILLER_20_221
*889 FILLER_20_233
*890 FILLER_20_245
*891 FILLER_20_251
*892 FILLER_20_253
*893 FILLER_20_265
*894 FILLER_20_27
*895 FILLER_20_277
*896 FILLER_20_289
*897 FILLER_20_29
*898 FILLER_20_3
*899 FILLER_20_301
*900 FILLER_20_307
*901 FILLER_20_309
*902 FILLER_20_321
*903 FILLER_20_333
*904 FILLER_20_345
*905 FILLER_20_357
*906 FILLER_20_363
*907 FILLER_20_365
*908 FILLER_20_377
*909 FILLER_20_389
*910 FILLER_20_401
*911 FILLER_20_41
*912 FILLER_20_53
*913 FILLER_20_65
*914 FILLER_20_77
*915 FILLER_20_83
*916 FILLER_20_85
*917 FILLER_20_97
*918 FILLER_21_110
*919 FILLER_21_113
*920 FILLER_21_125
*921 FILLER_21_137
*922 FILLER_21_145
*923 FILLER_21_15
*924 FILLER_21_152
*925 FILLER_21_164
*926 FILLER_21_169
*927 FILLER_21_181
*928 FILLER_21_193
*929 FILLER_21_199
*930 FILLER_21_222
*931 FILLER_21_233
*932 FILLER_21_245
*933 FILLER_21_257
*934 FILLER_21_269
*935 FILLER_21_27
*936 FILLER_21_277
*937 FILLER_21_281
*938 FILLER_21_293
*939 FILLER_21_3
*940 FILLER_21_310
*941 FILLER_21_322
*942 FILLER_21_334
*943 FILLER_21_337
*944 FILLER_21_349
*945 FILLER_21_361
*946 FILLER_21_373
*947 FILLER_21_385
*948 FILLER_21_39
*949 FILLER_21_391
*950 FILLER_21_393
*951 FILLER_21_405
*952 FILLER_21_51
*953 FILLER_21_55
*954 FILLER_21_57
*955 FILLER_21_69
*956 FILLER_21_81
*957 FILLER_21_93
*958 FILLER_22_109
*959 FILLER_22_121
*960 FILLER_22_15
*961 FILLER_22_153
*962 FILLER_22_165
*963 FILLER_22_177
*964 FILLER_22_189
*965 FILLER_22_195
*966 FILLER_22_214
*967 FILLER_22_226
*968 FILLER_22_238
*969 FILLER_22_250
*970 FILLER_22_253
*971 FILLER_22_265
*972 FILLER_22_27
*973 FILLER_22_277
*974 FILLER_22_29
*975 FILLER_22_3
*976 FILLER_22_301
*977 FILLER_22_307
*978 FILLER_22_309
*979 FILLER_22_321
*980 FILLER_22_333
*981 FILLER_22_345
*982 FILLER_22_357
*983 FILLER_22_363
*984 FILLER_22_365
*985 FILLER_22_377
*986 FILLER_22_389
*987 FILLER_22_401
*988 FILLER_22_41
*989 FILLER_22_53
*990 FILLER_22_65
*991 FILLER_22_77
*992 FILLER_22_83
*993 FILLER_22_85
*994 FILLER_22_97
*995 FILLER_23_105
*996 FILLER_23_111
*997 FILLER_23_113
*998 FILLER_23_125
*999 FILLER_23_133
*1000 FILLER_23_15
*1001 FILLER_23_156
*1002 FILLER_23_169
*1003 FILLER_23_181
*1004 FILLER_23_193
*1005 FILLER_23_205
*1006 FILLER_23_217
*1007 FILLER_23_223
*1008 FILLER_23_225
*1009 FILLER_23_237
*1010 FILLER_23_249
*1011 FILLER_23_265
*1012 FILLER_23_27
*1013 FILLER_23_277
*1014 FILLER_23_281
*1015 FILLER_23_293
*1016 FILLER_23_3
*1017 FILLER_23_308
*1018 FILLER_23_320
*1019 FILLER_23_332
*1020 FILLER_23_337
*1021 FILLER_23_349
*1022 FILLER_23_361
*1023 FILLER_23_373
*1024 FILLER_23_385
*1025 FILLER_23_39
*1026 FILLER_23_391
*1027 FILLER_23_393
*1028 FILLER_23_405
*1029 FILLER_23_51
*1030 FILLER_23_55
*1031 FILLER_23_57
*1032 FILLER_23_69
*1033 FILLER_23_81
*1034 FILLER_23_93
*1035 FILLER_24_109
*1036 FILLER_24_121
*1037 FILLER_24_133
*1038 FILLER_24_139
*1039 FILLER_24_141
*1040 FILLER_24_153
*1041 FILLER_24_165
*1042 FILLER_24_177
*1043 FILLER_24_189
*1044 FILLER_24_19
*1045 FILLER_24_195
*1046 FILLER_24_197
*1047 FILLER_24_209
*1048 FILLER_24_221
*1049 FILLER_24_233
*1050 FILLER_24_245
*1051 FILLER_24_251
*1052 FILLER_24_253
*1053 FILLER_24_260
*1054 FILLER_24_266
*1055 FILLER_24_27
*1056 FILLER_24_275
*1057 FILLER_24_287
*1058 FILLER_24_29
*1059 FILLER_24_299
*1060 FILLER_24_307
*1061 FILLER_24_309
*1062 FILLER_24_321
*1063 FILLER_24_333
*1064 FILLER_24_345
*1065 FILLER_24_357
*1066 FILLER_24_363
*1067 FILLER_24_365
*1068 FILLER_24_377
*1069 FILLER_24_389
*1070 FILLER_24_397
*1071 FILLER_24_41
*1072 FILLER_24_53
*1073 FILLER_24_65
*1074 FILLER_24_7
*1075 FILLER_24_77
*1076 FILLER_24_83
*1077 FILLER_24_85
*1078 FILLER_24_97
*1079 FILLER_25_100
*1080 FILLER_25_113
*1081 FILLER_25_125
*1082 FILLER_25_137
*1083 FILLER_25_149
*1084 FILLER_25_15
*1085 FILLER_25_153
*1086 FILLER_25_157
*1087 FILLER_25_165
*1088 FILLER_25_169
*1089 FILLER_25_181
*1090 FILLER_25_193
*1091 FILLER_25_205
*1092 FILLER_25_217
*1093 FILLER_25_223
*1094 FILLER_25_225
*1095 FILLER_25_231
*1096 FILLER_25_239
*1097 FILLER_25_251
*1098 FILLER_25_263
*1099 FILLER_25_27
*1100 FILLER_25_275
*1101 FILLER_25_279
*1102 FILLER_25_281
*1103 FILLER_25_293
*1104 FILLER_25_3
*1105 FILLER_25_305
*1106 FILLER_25_317
*1107 FILLER_25_329
*1108 FILLER_25_335
*1109 FILLER_25_337
*1110 FILLER_25_349
*1111 FILLER_25_361
*1112 FILLER_25_373
*1113 FILLER_25_385
*1114 FILLER_25_39
*1115 FILLER_25_391
*1116 FILLER_25_393
*1117 FILLER_25_405
*1118 FILLER_25_51
*1119 FILLER_25_55
*1120 FILLER_25_57
*1121 FILLER_25_69
*1122 FILLER_25_81
*1123 FILLER_25_87
*1124 FILLER_26_114
*1125 FILLER_26_126
*1126 FILLER_26_138
*1127 FILLER_26_141
*1128 FILLER_26_15
*1129 FILLER_26_153
*1130 FILLER_26_165
*1131 FILLER_26_170
*1132 FILLER_26_178
*1133 FILLER_26_184
*1134 FILLER_26_197
*1135 FILLER_26_209
*1136 FILLER_26_221
*1137 FILLER_26_232
*1138 FILLER_26_244
*1139 FILLER_26_253
*1140 FILLER_26_259
*1141 FILLER_26_27
*1142 FILLER_26_271
*1143 FILLER_26_283
*1144 FILLER_26_29
*1145 FILLER_26_295
*1146 FILLER_26_3
*1147 FILLER_26_307
*1148 FILLER_26_309
*1149 FILLER_26_321
*1150 FILLER_26_333
*1151 FILLER_26_345
*1152 FILLER_26_357
*1153 FILLER_26_363
*1154 FILLER_26_365
*1155 FILLER_26_377
*1156 FILLER_26_389
*1157 FILLER_26_401
*1158 FILLER_26_41
*1159 FILLER_26_53
*1160 FILLER_26_65
*1161 FILLER_26_77
*1162 FILLER_26_83
*1163 FILLER_26_85
*1164 FILLER_27_109
*1165 FILLER_27_113
*1166 FILLER_27_125
*1167 FILLER_27_137
*1168 FILLER_27_149
*1169 FILLER_27_15
*1170 FILLER_27_161
*1171 FILLER_27_167
*1172 FILLER_27_174
*1173 FILLER_27_192
*1174 FILLER_27_204
*1175 FILLER_27_216
*1176 FILLER_27_225
*1177 FILLER_27_237
*1178 FILLER_27_249
*1179 FILLER_27_261
*1180 FILLER_27_27
*1181 FILLER_27_273
*1182 FILLER_27_279
*1183 FILLER_27_281
*1184 FILLER_27_293
*1185 FILLER_27_3
*1186 FILLER_27_305
*1187 FILLER_27_317
*1188 FILLER_27_329
*1189 FILLER_27_335
*1190 FILLER_27_337
*1191 FILLER_27_349
*1192 FILLER_27_361
*1193 FILLER_27_373
*1194 FILLER_27_385
*1195 FILLER_27_39
*1196 FILLER_27_391
*1197 FILLER_27_393
*1198 FILLER_27_405
*1199 FILLER_27_51
*1200 FILLER_27_55
*1201 FILLER_27_57
*1202 FILLER_27_69
*1203 FILLER_27_81
*1204 FILLER_27_89
*1205 FILLER_27_98
*1206 FILLER_28_106
*1207 FILLER_28_118
*1208 FILLER_28_124
*1209 FILLER_28_130
*1210 FILLER_28_136
*1211 FILLER_28_141
*1212 FILLER_28_15
*1213 FILLER_28_153
*1214 FILLER_28_167
*1215 FILLER_28_174
*1216 FILLER_28_186
*1217 FILLER_28_194
*1218 FILLER_28_207
*1219 FILLER_28_222
*1220 FILLER_28_234
*1221 FILLER_28_246
*1222 FILLER_28_253
*1223 FILLER_28_265
*1224 FILLER_28_27
*1225 FILLER_28_277
*1226 FILLER_28_281
*1227 FILLER_28_29
*1228 FILLER_28_294
*1229 FILLER_28_3
*1230 FILLER_28_306
*1231 FILLER_28_309
*1232 FILLER_28_321
*1233 FILLER_28_333
*1234 FILLER_28_345
*1235 FILLER_28_357
*1236 FILLER_28_363
*1237 FILLER_28_365
*1238 FILLER_28_377
*1239 FILLER_28_389
*1240 FILLER_28_401
*1241 FILLER_28_41
*1242 FILLER_28_53
*1243 FILLER_28_65
*1244 FILLER_28_77
*1245 FILLER_28_83
*1246 FILLER_28_85
*1247 FILLER_29_106
*1248 FILLER_29_113
*1249 FILLER_29_119
*1250 FILLER_29_125
*1251 FILLER_29_137
*1252 FILLER_29_149
*1253 FILLER_29_15
*1254 FILLER_29_155
*1255 FILLER_29_163
*1256 FILLER_29_167
*1257 FILLER_29_169
*1258 FILLER_29_181
*1259 FILLER_29_193
*1260 FILLER_29_205
*1261 FILLER_29_217
*1262 FILLER_29_223
*1263 FILLER_29_225
*1264 FILLER_29_240
*1265 FILLER_29_252
*1266 FILLER_29_264
*1267 FILLER_29_27
*1268 FILLER_29_276
*1269 FILLER_29_281
*1270 FILLER_29_293
*1271 FILLER_29_3
*1272 FILLER_29_305
*1273 FILLER_29_317
*1274 FILLER_29_329
*1275 FILLER_29_335
*1276 FILLER_29_337
*1277 FILLER_29_349
*1278 FILLER_29_361
*1279 FILLER_29_373
*1280 FILLER_29_385
*1281 FILLER_29_39
*1282 FILLER_29_391
*1283 FILLER_29_393
*1284 FILLER_29_405
*1285 FILLER_29_51
*1286 FILLER_29_55
*1287 FILLER_29_57
*1288 FILLER_29_69
*1289 FILLER_29_81
*1290 FILLER_29_92
*1291 FILLER_2_109
*1292 FILLER_2_121
*1293 FILLER_2_133
*1294 FILLER_2_139
*1295 FILLER_2_141
*1296 FILLER_2_15
*1297 FILLER_2_153
*1298 FILLER_2_165
*1299 FILLER_2_177
*1300 FILLER_2_189
*1301 FILLER_2_195
*1302 FILLER_2_197
*1303 FILLER_2_209
*1304 FILLER_2_221
*1305 FILLER_2_233
*1306 FILLER_2_245
*1307 FILLER_2_251
*1308 FILLER_2_253
*1309 FILLER_2_261
*1310 FILLER_2_266
*1311 FILLER_2_27
*1312 FILLER_2_278
*1313 FILLER_2_29
*1314 FILLER_2_290
*1315 FILLER_2_3
*1316 FILLER_2_302
*1317 FILLER_2_309
*1318 FILLER_2_321
*1319 FILLER_2_333
*1320 FILLER_2_345
*1321 FILLER_2_357
*1322 FILLER_2_363
*1323 FILLER_2_365
*1324 FILLER_2_377
*1325 FILLER_2_389
*1326 FILLER_2_401
*1327 FILLER_2_41
*1328 FILLER_2_53
*1329 FILLER_2_65
*1330 FILLER_2_77
*1331 FILLER_2_83
*1332 FILLER_2_85
*1333 FILLER_2_97
*1334 FILLER_30_109
*1335 FILLER_30_121
*1336 FILLER_30_133
*1337 FILLER_30_139
*1338 FILLER_30_141
*1339 FILLER_30_15
*1340 FILLER_30_153
*1341 FILLER_30_159
*1342 FILLER_30_167
*1343 FILLER_30_178
*1344 FILLER_30_190
*1345 FILLER_30_197
*1346 FILLER_30_209
*1347 FILLER_30_221
*1348 FILLER_30_233
*1349 FILLER_30_245
*1350 FILLER_30_251
*1351 FILLER_30_253
*1352 FILLER_30_265
*1353 FILLER_30_27
*1354 FILLER_30_274
*1355 FILLER_30_286
*1356 FILLER_30_29
*1357 FILLER_30_294
*1358 FILLER_30_3
*1359 FILLER_30_302
*1360 FILLER_30_309
*1361 FILLER_30_321
*1362 FILLER_30_333
*1363 FILLER_30_345
*1364 FILLER_30_357
*1365 FILLER_30_363
*1366 FILLER_30_365
*1367 FILLER_30_377
*1368 FILLER_30_389
*1369 FILLER_30_401
*1370 FILLER_30_41
*1371 FILLER_30_53
*1372 FILLER_30_65
*1373 FILLER_30_77
*1374 FILLER_30_83
*1375 FILLER_30_85
*1376 FILLER_30_97
*1377 FILLER_31_105
*1378 FILLER_31_111
*1379 FILLER_31_113
*1380 FILLER_31_125
*1381 FILLER_31_135
*1382 FILLER_31_147
*1383 FILLER_31_15
*1384 FILLER_31_159
*1385 FILLER_31_167
*1386 FILLER_31_169
*1387 FILLER_31_181
*1388 FILLER_31_193
*1389 FILLER_31_205
*1390 FILLER_31_217
*1391 FILLER_31_223
*1392 FILLER_31_225
*1393 FILLER_31_237
*1394 FILLER_31_249
*1395 FILLER_31_261
*1396 FILLER_31_267
*1397 FILLER_31_27
*1398 FILLER_31_279
*1399 FILLER_31_281
*1400 FILLER_31_293
*1401 FILLER_31_3
*1402 FILLER_31_301
*1403 FILLER_31_309
*1404 FILLER_31_321
*1405 FILLER_31_333
*1406 FILLER_31_337
*1407 FILLER_31_349
*1408 FILLER_31_361
*1409 FILLER_31_373
*1410 FILLER_31_385
*1411 FILLER_31_39
*1412 FILLER_31_391
*1413 FILLER_31_393
*1414 FILLER_31_405
*1415 FILLER_31_51
*1416 FILLER_31_55
*1417 FILLER_31_57
*1418 FILLER_31_69
*1419 FILLER_31_81
*1420 FILLER_31_93
*1421 FILLER_32_109
*1422 FILLER_32_121
*1423 FILLER_32_133
*1424 FILLER_32_139
*1425 FILLER_32_141
*1426 FILLER_32_15
*1427 FILLER_32_153
*1428 FILLER_32_165
*1429 FILLER_32_174
*1430 FILLER_32_178
*1431 FILLER_32_189
*1432 FILLER_32_195
*1433 FILLER_32_197
*1434 FILLER_32_209
*1435 FILLER_32_221
*1436 FILLER_32_233
*1437 FILLER_32_245
*1438 FILLER_32_251
*1439 FILLER_32_253
*1440 FILLER_32_261
*1441 FILLER_32_266
*1442 FILLER_32_27
*1443 FILLER_32_270
*1444 FILLER_32_280
*1445 FILLER_32_29
*1446 FILLER_32_292
*1447 FILLER_32_3
*1448 FILLER_32_300
*1449 FILLER_32_316
*1450 FILLER_32_328
*1451 FILLER_32_340
*1452 FILLER_32_352
*1453 FILLER_32_365
*1454 FILLER_32_377
*1455 FILLER_32_389
*1456 FILLER_32_41
*1457 FILLER_32_53
*1458 FILLER_32_65
*1459 FILLER_32_77
*1460 FILLER_32_83
*1461 FILLER_32_85
*1462 FILLER_32_97
*1463 FILLER_33_105
*1464 FILLER_33_111
*1465 FILLER_33_113
*1466 FILLER_33_125
*1467 FILLER_33_138
*1468 FILLER_33_15
*1469 FILLER_33_150
*1470 FILLER_33_162
*1471 FILLER_33_169
*1472 FILLER_33_177
*1473 FILLER_33_191
*1474 FILLER_33_203
*1475 FILLER_33_215
*1476 FILLER_33_221
*1477 FILLER_33_225
*1478 FILLER_33_237
*1479 FILLER_33_249
*1480 FILLER_33_261
*1481 FILLER_33_27
*1482 FILLER_33_273
*1483 FILLER_33_279
*1484 FILLER_33_281
*1485 FILLER_33_3
*1486 FILLER_33_307
*1487 FILLER_33_326
*1488 FILLER_33_334
*1489 FILLER_33_337
*1490 FILLER_33_349
*1491 FILLER_33_361
*1492 FILLER_33_373
*1493 FILLER_33_385
*1494 FILLER_33_39
*1495 FILLER_33_391
*1496 FILLER_33_393
*1497 FILLER_33_405
*1498 FILLER_33_51
*1499 FILLER_33_55
*1500 FILLER_33_57
*1501 FILLER_33_69
*1502 FILLER_33_81
*1503 FILLER_33_93
*1504 FILLER_33_97
*1505 FILLER_34_109
*1506 FILLER_34_121
*1507 FILLER_34_133
*1508 FILLER_34_139
*1509 FILLER_34_141
*1510 FILLER_34_15
*1511 FILLER_34_153
*1512 FILLER_34_165
*1513 FILLER_34_177
*1514 FILLER_34_189
*1515 FILLER_34_195
*1516 FILLER_34_204
*1517 FILLER_34_212
*1518 FILLER_34_228
*1519 FILLER_34_240
*1520 FILLER_34_253
*1521 FILLER_34_265
*1522 FILLER_34_27
*1523 FILLER_34_277
*1524 FILLER_34_289
*1525 FILLER_34_29
*1526 FILLER_34_3
*1527 FILLER_34_301
*1528 FILLER_34_307
*1529 FILLER_34_315
*1530 FILLER_34_327
*1531 FILLER_34_339
*1532 FILLER_34_351
*1533 FILLER_34_363
*1534 FILLER_34_365
*1535 FILLER_34_377
*1536 FILLER_34_389
*1537 FILLER_34_397
*1538 FILLER_34_41
*1539 FILLER_34_53
*1540 FILLER_34_65
*1541 FILLER_34_77
*1542 FILLER_34_83
*1543 FILLER_34_85
*1544 FILLER_34_97
*1545 FILLER_35_100
*1546 FILLER_35_109
*1547 FILLER_35_118
*1548 FILLER_35_130
*1549 FILLER_35_142
*1550 FILLER_35_15
*1551 FILLER_35_154
*1552 FILLER_35_166
*1553 FILLER_35_169
*1554 FILLER_35_181
*1555 FILLER_35_193
*1556 FILLER_35_205
*1557 FILLER_35_213
*1558 FILLER_35_221
*1559 FILLER_35_225
*1560 FILLER_35_229
*1561 FILLER_35_243
*1562 FILLER_35_255
*1563 FILLER_35_267
*1564 FILLER_35_27
*1565 FILLER_35_279
*1566 FILLER_35_281
*1567 FILLER_35_293
*1568 FILLER_35_3
*1569 FILLER_35_305
*1570 FILLER_35_317
*1571 FILLER_35_329
*1572 FILLER_35_335
*1573 FILLER_35_337
*1574 FILLER_35_349
*1575 FILLER_35_361
*1576 FILLER_35_373
*1577 FILLER_35_385
*1578 FILLER_35_39
*1579 FILLER_35_391
*1580 FILLER_35_393
*1581 FILLER_35_405
*1582 FILLER_35_51
*1583 FILLER_35_55
*1584 FILLER_35_57
*1585 FILLER_35_69
*1586 FILLER_35_81
*1587 FILLER_35_89
*1588 FILLER_35_93
*1589 FILLER_36_106
*1590 FILLER_36_118
*1591 FILLER_36_130
*1592 FILLER_36_136
*1593 FILLER_36_141
*1594 FILLER_36_148
*1595 FILLER_36_15
*1596 FILLER_36_160
*1597 FILLER_36_172
*1598 FILLER_36_184
*1599 FILLER_36_197
*1600 FILLER_36_209
*1601 FILLER_36_217
*1602 FILLER_36_227
*1603 FILLER_36_239
*1604 FILLER_36_251
*1605 FILLER_36_253
*1606 FILLER_36_265
*1607 FILLER_36_27
*1608 FILLER_36_277
*1609 FILLER_36_289
*1610 FILLER_36_29
*1611 FILLER_36_3
*1612 FILLER_36_301
*1613 FILLER_36_307
*1614 FILLER_36_309
*1615 FILLER_36_321
*1616 FILLER_36_333
*1617 FILLER_36_345
*1618 FILLER_36_357
*1619 FILLER_36_363
*1620 FILLER_36_365
*1621 FILLER_36_377
*1622 FILLER_36_389
*1623 FILLER_36_401
*1624 FILLER_36_41
*1625 FILLER_36_53
*1626 FILLER_36_65
*1627 FILLER_36_77
*1628 FILLER_36_83
*1629 FILLER_36_85
*1630 FILLER_37_103
*1631 FILLER_37_111
*1632 FILLER_37_113
*1633 FILLER_37_125
*1634 FILLER_37_169
*1635 FILLER_37_18
*1636 FILLER_37_181
*1637 FILLER_37_193
*1638 FILLER_37_205
*1639 FILLER_37_217
*1640 FILLER_37_223
*1641 FILLER_37_225
*1642 FILLER_37_237
*1643 FILLER_37_249
*1644 FILLER_37_269
*1645 FILLER_37_277
*1646 FILLER_37_288
*1647 FILLER_37_30
*1648 FILLER_37_300
*1649 FILLER_37_312
*1650 FILLER_37_324
*1651 FILLER_37_337
*1652 FILLER_37_349
*1653 FILLER_37_361
*1654 FILLER_37_373
*1655 FILLER_37_385
*1656 FILLER_37_391
*1657 FILLER_37_393
*1658 FILLER_37_405
*1659 FILLER_37_42
*1660 FILLER_37_54
*1661 FILLER_37_57
*1662 FILLER_37_6
*1663 FILLER_37_69
*1664 FILLER_37_81
*1665 FILLER_37_93
*1666 FILLER_38_105
*1667 FILLER_38_109
*1668 FILLER_38_121
*1669 FILLER_38_133
*1670 FILLER_38_139
*1671 FILLER_38_141
*1672 FILLER_38_15
*1673 FILLER_38_153
*1674 FILLER_38_165
*1675 FILLER_38_173
*1676 FILLER_38_178
*1677 FILLER_38_190
*1678 FILLER_38_197
*1679 FILLER_38_209
*1680 FILLER_38_221
*1681 FILLER_38_233
*1682 FILLER_38_245
*1683 FILLER_38_251
*1684 FILLER_38_253
*1685 FILLER_38_267
*1686 FILLER_38_27
*1687 FILLER_38_272
*1688 FILLER_38_284
*1689 FILLER_38_29
*1690 FILLER_38_296
*1691 FILLER_38_3
*1692 FILLER_38_309
*1693 FILLER_38_321
*1694 FILLER_38_333
*1695 FILLER_38_345
*1696 FILLER_38_357
*1697 FILLER_38_363
*1698 FILLER_38_365
*1699 FILLER_38_377
*1700 FILLER_38_389
*1701 FILLER_38_401
*1702 FILLER_38_41
*1703 FILLER_38_53
*1704 FILLER_38_65
*1705 FILLER_38_77
*1706 FILLER_38_83
*1707 FILLER_38_85
*1708 FILLER_38_97
*1709 FILLER_39_105
*1710 FILLER_39_111
*1711 FILLER_39_113
*1712 FILLER_39_132
*1713 FILLER_39_144
*1714 FILLER_39_15