*SPEF "ieee 1481-1999"
*DESIGN "mult8_2bits_1op_e16577"
*DATE "18:54:15 Tuesday September 16, 2025"
*VENDOR "The OpenROAD Project"
*PROGRAM "OpenROAD"
*VERSION "edf00dff99f6c40d67a30c0e22a8191c5d2ed9d6"
*DESIGN_FLOW "NAME_SCOPE LOCAL" "PIN_CAP NONE"
*DIVIDER /
*DELIMITER :
*BUS_DELIMITER []
*T_UNIT 1 NS
*C_UNIT 1 PF
*R_UNIT 1 OHM
*L_UNIT 1 HENRY

*NAME_MAP
*1 A[0]
*2 A[1]
*3 A[2]
*4 A[3]
*5 A[4]
*6 A[5]
*7 A[6]
*8 A[7]
*9 B[0]
*10 B[1]
*11 B[2]
*12 B[3]
*13 B[4]
*14 B[5]
*15 B[6]
*16 B[7]
*17 P[0]
*18 P[10]
*19 P[11]
*20 P[12]
*21 P[13]
*22 P[14]
*23 P[15]
*24 P[1]
*25 P[2]
*26 P[3]
*27 P[4]
*28 P[5]
*29 P[6]
*30 P[7]
*31 P[8]
*32 P[9]
*35 _000_
*36 _001_
*37 _002_
*38 _003_
*39 _004_
*40 _005_
*41 _006_
*42 _007_
*43 _008_
*44 _009_
*45 _010_
*46 _011_
*47 _012_
*48 _013_
*49 _014_
*50 _015_
*51 _016_
*52 _017_
*53 _018_
*54 _019_
*55 _020_
*56 _021_
*57 _022_
*58 _023_
*59 _024_
*60 _025_
*61 _026_
*62 _027_
*63 _028_
*64 _029_
*65 _030_
*66 _031_
*67 _032_
*68 _033_
*69 _034_
*70 _035_
*71 _036_
*72 _037_
*73 _038_
*74 _039_
*75 _040_
*76 _041_
*77 _042_
*78 _043_
*79 _044_
*80 _045_
*81 _046_
*82 _047_
*83 _048_
*84 _049_
*85 _050_
*86 _051_
*87 _052_
*88 _053_
*89 _054_
*90 _055_
*91 _056_
*92 _057_
*93 _058_
*94 _059_
*95 _060_
*96 _061_
*97 _062_
*98 _063_
*99 _064_
*100 _065_
*101 _066_
*102 _067_
*103 _068_
*104 _069_
*105 _070_
*106 _071_
*107 _072_
*108 _073_
*109 _074_
*110 _075_
*111 _076_
*112 _077_
*113 _078_
*114 _079_
*115 _080_
*116 _081_
*117 _082_
*118 _083_
*119 _084_
*120 _085_
*121 _086_
*122 _087_
*123 _088_
*124 _089_
*125 _090_
*126 _091_
*127 _092_
*128 _093_
*129 _094_
*130 _095_
*131 _096_
*132 _097_
*133 _098_
*134 _099_
*135 _100_
*136 _101_
*137 _102_
*138 _103_
*139 _104_
*140 _105_
*141 _106_
*142 _107_
*143 _108_
*144 _109_
*145 _110_
*146 _111_
*147 _112_
*148 _113_
*149 _114_
*150 _115_
*151 _116_
*152 _117_
*153 _118_
*154 _119_
*155 _120_
*156 _121_
*157 _122_
*158 _123_
*159 _124_
*160 _125_
*161 _126_
*162 _127_
*163 _128_
*164 _129_
*165 _130_
*166 _131_
*167 _132_
*168 _133_
*169 _134_
*170 _135_
*171 _136_
*172 _137_
*173 _138_
*174 _139_
*175 _140_
*176 _141_
*177 _142_
*178 _143_
*179 _144_
*180 _145_
*181 _146_
*182 _147_
*183 _148_
*184 _149_
*185 _150_
*186 _151_
*187 _152_
*188 _153_
*189 _154_
*190 _155_
*191 _156_
*192 _157_
*193 _158_
*194 _159_
*195 _160_
*196 _161_
*197 _162_
*198 _163_
*199 _164_
*200 _165_
*201 _166_
*202 _167_
*203 _168_
*204 _169_
*205 _170_
*206 _171_
*207 _172_
*208 _173_
*209 _174_
*210 _175_
*211 _176_
*212 _177_
*213 _178_
*214 _179_
*215 _180_
*216 _181_
*217 _182_
*218 _183_
*219 _184_
*220 _185_
*221 _186_
*222 _187_
*223 _188_
*224 _189_
*225 _190_
*226 _191_
*227 _192_
*228 _193_
*229 _194_
*230 _195_
*231 _196_
*232 _197_
*233 _198_
*234 _199_
*235 _200_
*236 _201_
*237 _202_
*238 _203_
*239 _204_
*240 _205_
*241 _206_
*242 _207_
*243 _208_
*244 _209_
*245 _210_
*246 _211_
*247 _212_
*248 _213_
*249 _214_
*250 _215_
*251 _216_
*252 _217_
*253 _218_
*254 _219_
*255 _220_
*256 _221_
*257 _222_
*258 _223_
*259 _224_
*260 _225_
*261 _226_
*262 _227_
*263 _228_
*264 _229_
*265 _230_
*266 _231_
*267 _232_
*268 _233_
*269 _234_
*270 _235_
*271 _236_
*272 _237_
*273 _238_
*274 _239_
*275 _240_
*276 _241_
*277 _242_
*278 _243_
*279 _244_
*280 _245_
*281 _246_
*282 _247_
*283 _248_
*284 _249_
*285 _250_
*286 _251_
*287 _252_
*288 _253_
*289 _254_
*290 _255_
*291 _256_
*292 _257_
*293 _258_
*294 _259_
*295 _260_
*296 _261_
*297 _262_
*298 _263_
*299 _264_
*300 _265_
*301 _266_
*302 _267_
*303 _268_
*304 _269_
*305 _270_
*306 _271_
*307 _272_
*308 _273_
*309 _274_
*310 _275_
*311 _276_
*312 _277_
*313 _278_
*314 _279_
*315 _280_
*316 _281_
*317 _282_
*318 _283_
*319 net1
*320 net10
*321 net11
*322 net12
*323 net13
*324 net14
*325 net15
*326 net16
*327 net17
*328 net18
*329 net19
*330 net2
*331 net20
*332 net21
*333 net22
*334 net23
*335 net24
*336 net25
*337 net26
*338 net27
*339 net28
*340 net29
*341 net3
*342 net30
*343 net31
*344 net32
*345 net33
*346 net34
*347 net35
*348 net36
*349 net37
*350 net38
*351 net39
*352 net4
*353 net40
*354 net41
*355 net42
*356 net43
*357 net44
*358 net45
*359 net46
*360 net47
*361 net48
*362 net49
*363 net5
*364 net50
*365 net51
*366 net52
*367 net53
*368 net54
*369 net55
*370 net56
*371 net57
*372 net58
*373 net59
*374 net6
*375 net60
*376 net61
*377 net62
*378 net63
*379 net64
*380 net65
*381 net66
*382 net67
*383 net68
*384 net69
*385 net7
*386 net70
*387 net71
*388 net72
*389 net8
*390 net83
*391 net84
*392 net85
*393 net86
*394 net87
*395 net88
*396 net89
*397 net9
*398 net90
*399 net91
*400 net92
*401 net93
*402 FILLER_0_105
*403 FILLER_0_113
*404 FILLER_0_119
*405 FILLER_0_126
*406 FILLER_0_139
*407 FILLER_0_141
*408 FILLER_0_15
*409 FILLER_0_153
*410 FILLER_0_160
*411 FILLER_0_169
*412 FILLER_0_181
*413 FILLER_0_189
*414 FILLER_0_195
*415 FILLER_0_197
*416 FILLER_0_203
*417 FILLER_0_215
*418 FILLER_0_223
*419 FILLER_0_225
*420 FILLER_0_231
*421 FILLER_0_239
*422 FILLER_0_245
*423 FILLER_0_251
*424 FILLER_0_253
*425 FILLER_0_265
*426 FILLER_0_27
*427 FILLER_0_277
*428 FILLER_0_281
*429 FILLER_0_289
*430 FILLER_0_29
*431 FILLER_0_3
*432 FILLER_0_301
*433 FILLER_0_307
*434 FILLER_0_309
*435 FILLER_0_321
*436 FILLER_0_333
*437 FILLER_0_337
*438 FILLER_0_349
*439 FILLER_0_361
*440 FILLER_0_365
*441 FILLER_0_377
*442 FILLER_0_389
*443 FILLER_0_393
*444 FILLER_0_405
*445 FILLER_0_41
*446 FILLER_0_53
*447 FILLER_0_57
*448 FILLER_0_69
*449 FILLER_0_81
*450 FILLER_0_85
*451 FILLER_0_97
*452 FILLER_10_106
*453 FILLER_10_118
*454 FILLER_10_130
*455 FILLER_10_138
*456 FILLER_10_141
*457 FILLER_10_149
*458 FILLER_10_15
*459 FILLER_10_166
*460 FILLER_10_175
*461 FILLER_10_187
*462 FILLER_10_195
*463 FILLER_10_197
*464 FILLER_10_209
*465 FILLER_10_221
*466 FILLER_10_233
*467 FILLER_10_245
*468 FILLER_10_251
*469 FILLER_10_253
*470 FILLER_10_265
*471 FILLER_10_27
*472 FILLER_10_277
*473 FILLER_10_289
*474 FILLER_10_29
*475 FILLER_10_3
*476 FILLER_10_301
*477 FILLER_10_307
*478 FILLER_10_309
*479 FILLER_10_321
*480 FILLER_10_333
*481 FILLER_10_345
*482 FILLER_10_357
*483 FILLER_10_363
*484 FILLER_10_365
*485 FILLER_10_377
*486 FILLER_10_389
*487 FILLER_10_401
*488 FILLER_10_41
*489 FILLER_10_53
*490 FILLER_10_65
*491 FILLER_10_77
*492 FILLER_10_83
*493 FILLER_10_85
*494 FILLER_10_93
*495 FILLER_11_109
*496 FILLER_11_113
*497 FILLER_11_125
*498 FILLER_11_137
*499 FILLER_11_143
*500 FILLER_11_15
*501 FILLER_11_155
*502 FILLER_11_167
*503 FILLER_11_173
*504 FILLER_11_185
*505 FILLER_11_197
*506 FILLER_11_201
*507 FILLER_11_207
*508 FILLER_11_219
*509 FILLER_11_223
*510 FILLER_11_225
*511 FILLER_11_237
*512 FILLER_11_249
*513 FILLER_11_257
*514 FILLER_11_27
*515 FILLER_11_270
*516 FILLER_11_278
*517 FILLER_11_281
*518 FILLER_11_293
*519 FILLER_11_3
*520 FILLER_11_305
*521 FILLER_11_317
*522 FILLER_11_329
*523 FILLER_11_335
*524 FILLER_11_337
*525 FILLER_11_349
*526 FILLER_11_361
*527 FILLER_11_373
*528 FILLER_11_385
*529 FILLER_11_39
*530 FILLER_11_391
*531 FILLER_11_393
*532 FILLER_11_405
*533 FILLER_11_51
*534 FILLER_11_55
*535 FILLER_11_57
*536 FILLER_11_69
*537 FILLER_11_81
*538 FILLER_11_87
*539 FILLER_12_122
*540 FILLER_12_134
*541 FILLER_12_141
*542 FILLER_12_147
*543 FILLER_12_15
*544 FILLER_12_159
*545 FILLER_12_171
*546 FILLER_12_183
*547 FILLER_12_195
*548 FILLER_12_207
*549 FILLER_12_219
*550 FILLER_12_231
*551 FILLER_12_239
*552 FILLER_12_245
*553 FILLER_12_251
*554 FILLER_12_253
*555 FILLER_12_257
*556 FILLER_12_264
*557 FILLER_12_27
*558 FILLER_12_271
*559 FILLER_12_283
*560 FILLER_12_29
*561 FILLER_12_295
*562 FILLER_12_3
*563 FILLER_12_307
*564 FILLER_12_309
*565 FILLER_12_321
*566 FILLER_12_333
*567 FILLER_12_345
*568 FILLER_12_357
*569 FILLER_12_363
*570 FILLER_12_365
*571 FILLER_12_377
*572 FILLER_12_389
*573 FILLER_12_401
*574 FILLER_12_41
*575 FILLER_12_53
*576 FILLER_12_65
*577 FILLER_12_77
*578 FILLER_12_83
*579 FILLER_12_85
*580 FILLER_13_113
*581 FILLER_13_125
*582 FILLER_13_137
*583 FILLER_13_15
*584 FILLER_13_155
*585 FILLER_13_167
*586 FILLER_13_169
*587 FILLER_13_173
*588 FILLER_13_183
*589 FILLER_13_195
*590 FILLER_13_203
*591 FILLER_13_212
*592 FILLER_13_225
*593 FILLER_13_241
*594 FILLER_13_249
*595 FILLER_13_267
*596 FILLER_13_27
*597 FILLER_13_279
*598 FILLER_13_281
*599 FILLER_13_293
*600 FILLER_13_3
*601 FILLER_13_305
*602 FILLER_13_317
*603 FILLER_13_329
*604 FILLER_13_335
*605 FILLER_13_337
*606 FILLER_13_349
*607 FILLER_13_361
*608 FILLER_13_373
*609 FILLER_13_385
*610 FILLER_13_39
*611 FILLER_13_391
*612 FILLER_13_393
*613 FILLER_13_405
*614 FILLER_13_51
*615 FILLER_13_55
*616 FILLER_13_57
*617 FILLER_13_69
*618 FILLER_13_81
*619 FILLER_13_85
*620 FILLER_13_91
*621 FILLER_14_102
*622 FILLER_14_129
*623 FILLER_14_137
*624 FILLER_14_141
*625 FILLER_14_15
*626 FILLER_14_159
*627 FILLER_14_171
*628 FILLER_14_183
*629 FILLER_14_195
*630 FILLER_14_197
*631 FILLER_14_209
*632 FILLER_14_221
*633 FILLER_14_225
*634 FILLER_14_229
*635 FILLER_14_248
*636 FILLER_14_253
*637 FILLER_14_261
*638 FILLER_14_27
*639 FILLER_14_273
*640 FILLER_14_285
*641 FILLER_14_29
*642 FILLER_14_297
*643 FILLER_14_3
*644 FILLER_14_305
*645 FILLER_14_309
*646 FILLER_14_321
*647 FILLER_14_333
*648 FILLER_14_345
*649 FILLER_14_357
*650 FILLER_14_363
*651 FILLER_14_365
*652 FILLER_14_377
*653 FILLER_14_389
*654 FILLER_14_401
*655 FILLER_14_41
*656 FILLER_14_53
*657 FILLER_14_65
*658 FILLER_14_77
*659 FILLER_14_83
*660 FILLER_14_85
*661 FILLER_14_91
*662 FILLER_15_113
*663 FILLER_15_125
*664 FILLER_15_15
*665 FILLER_15_167
*666 FILLER_15_169
*667 FILLER_15_181
*668 FILLER_15_193
*669 FILLER_15_201
*670 FILLER_15_210
*671 FILLER_15_222
*672 FILLER_15_225
*673 FILLER_15_230
*674 FILLER_15_242
*675 FILLER_15_254
*676 FILLER_15_269
*677 FILLER_15_27
*678 FILLER_15_277
*679 FILLER_15_293
*680 FILLER_15_3
*681 FILLER_15_305
*682 FILLER_15_317
*683 FILLER_15_329
*684 FILLER_15_335
*685 FILLER_15_337
*686 FILLER_15_349
*687 FILLER_15_361
*688 FILLER_15_373
*689 FILLER_15_385
*690 FILLER_15_39
*691 FILLER_15_391
*692 FILLER_15_393
*693 FILLER_15_405
*694 FILLER_15_51
*695 FILLER_15_55
*696 FILLER_15_57
*697 FILLER_15_69
*698 FILLER_15_81
*699 FILLER_15_93
*700 FILLER_15_97
*701 FILLER_16_111
*702 FILLER_16_123
*703 FILLER_16_135
*704 FILLER_16_139
*705 FILLER_16_177
*706 FILLER_16_189
*707 FILLER_16_19
*708 FILLER_16_195
*709 FILLER_16_197
*710 FILLER_16_209
*711 FILLER_16_221
*712 FILLER_16_233
*713 FILLER_16_245
*714 FILLER_16_251
*715 FILLER_16_253
*716 FILLER_16_265
*717 FILLER_16_27
*718 FILLER_16_277
*719 FILLER_16_29
*720 FILLER_16_300
*721 FILLER_16_309
*722 FILLER_16_321
*723 FILLER_16_333
*724 FILLER_16_345
*725 FILLER_16_357
*726 FILLER_16_363
*727 FILLER_16_365
*728 FILLER_16_377
*729 FILLER_16_389
*730 FILLER_16_401
*731 FILLER_16_41
*732 FILLER_16_53
*733 FILLER_16_65
*734 FILLER_16_7
*735 FILLER_16_77
*736 FILLER_16_83
*737 FILLER_16_85
*738 FILLER_16_97
*739 FILLER_17_105
*740 FILLER_17_111
*741 FILLER_17_113
*742 FILLER_17_125
*743 FILLER_17_133
*744 FILLER_17_15
*745 FILLER_17_165
*746 FILLER_17_169
*747 FILLER_17_181
*748 FILLER_17_193
*749 FILLER_17_205
*750 FILLER_17_217
*751 FILLER_17_223
*752 FILLER_17_225
*753 FILLER_17_237
*754 FILLER_17_249
*755 FILLER_17_261
*756 FILLER_17_27
*757 FILLER_17_273
*758 FILLER_17_279
*759 FILLER_17_294
*760 FILLER_17_3
*761 FILLER_17_306
*762 FILLER_17_318
*763 FILLER_17_330
*764 FILLER_17_337
*765 FILLER_17_349
*766 FILLER_17_361
*767 FILLER_17_373
*768 FILLER_17_385
*769 FILLER_17_39
*770 FILLER_17_391
*771 FILLER_17_393
*772 FILLER_17_405
*773 FILLER_17_51
*774 FILLER_17_55
*775 FILLER_17_57
*776 FILLER_17_69
*777 FILLER_17_81
*778 FILLER_17_93
*779 FILLER_18_109
*780 FILLER_18_121
*781 FILLER_18_133
*782 FILLER_18_139
*783 FILLER_18_141
*784 FILLER_18_149
*785 FILLER_18_15
*786 FILLER_18_161
*787 FILLER_18_173
*788 FILLER_18_181
*789 FILLER_18_191
*790 FILLER_18_195
*791 FILLER_18_197
*792 FILLER_18_209
*793 FILLER_18_227
*794 FILLER_18_239
*795 FILLER_18_251
*796 FILLER_18_253
*797 FILLER_18_265
*798 FILLER_18_27
*799 FILLER_18_277
*800 FILLER_18_289
*801 FILLER_18_29
*802 FILLER_18_3
*803 FILLER_18_301
*804 FILLER_18_307
*805 FILLER_18_309
*806 FILLER_18_321
*807 FILLER_18_333
*808 FILLER_18_345
*809 FILLER_18_357
*810 FILLER_18_363
*811 FILLER_18_365
*812 FILLER_18_377
*813 FILLER_18_389
*814 FILLER_18_401
*815 FILLER_18_41
*816 FILLER_18_53
*817 FILLER_18_65
*818 FILLER_18_77
*819 FILLER_18_83
*820 FILLER_18_85
*821 FILLER_18_97
*822 FILLER_19_101
*823 FILLER_19_107
*824 FILLER_19_111
*825 FILLER_19_113
*826 FILLER_19_117
*827 FILLER_19_129
*828 FILLER_19_141
*829 FILLER_19_15
*830 FILLER_19_153
*831 FILLER_19_165
*832 FILLER_19_169
*833 FILLER_19_181
*834 FILLER_19_192
*835 FILLER_19_205
*836 FILLER_19_217
*837 FILLER_19_223
*838 FILLER_19_225
*839 FILLER_19_237
*840 FILLER_19_249
*841 FILLER_19_261
*842 FILLER_19_27
*843 FILLER_19_273
*844 FILLER_19_279
*845 FILLER_19_281
*846 FILLER_19_293
*847 FILLER_19_3
*848 FILLER_19_305
*849 FILLER_19_317
*850 FILLER_19_329
*851 FILLER_19_335
*852 FILLER_19_337
*853 FILLER_19_349
*854 FILLER_19_361
*855 FILLER_19_373
*856 FILLER_19_385
*857 FILLER_19_39
*858 FILLER_19_391
*859 FILLER_19_393
*860 FILLER_19_51
*861 FILLER_19_55
*862 FILLER_19_57
*863 FILLER_19_69
*864 FILLER_19_81
*865 FILLER_1_105
*866 FILLER_1_111
*867 FILLER_1_113
*868 FILLER_1_125
*869 FILLER_1_135
*870 FILLER_1_147
*871 FILLER_1_15
*872 FILLER_1_159
*873 FILLER_1_167
*874 FILLER_1_169
*875 FILLER_1_181
*876 FILLER_1_193
*877 FILLER_1_205
*878 FILLER_1_217
*879 FILLER_1_223
*880 FILLER_1_225
*881 FILLER_1_237
*882 FILLER_1_249
*883 FILLER_1_261
*884 FILLER_1_27
*885 FILLER_1_273
*886 FILLER_1_279
*887 FILLER_1_281
*888 FILLER_1_293
*889 FILLER_1_3
*890 FILLER_1_305
*891 FILLER_1_317
*892 FILLER_1_329
*893 FILLER_1_335
*894 FILLER_1_337
*895 FILLER_1_349
*896 FILLER_1_361
*897 FILLER_1_373
*898 FILLER_1_385
*899 FILLER_1_39
*900 FILLER_1_391
*901 FILLER_1_393
*902 FILLER_1_405
*903 FILLER_1_51
*904 FILLER_1_55
*905 FILLER_1_57
*906 FILLER_1_69
*907 FILLER_1_81
*908 FILLER_1_93
*909 FILLER_20_106
*910 FILLER_20_118
*911 FILLER_20_130
*912 FILLER_20_138
*913 FILLER_20_141
*914 FILLER_20_15
*915 FILLER_20_153
*916 FILLER_20_165
*917 FILLER_20_177
*918 FILLER_20_193
*919 FILLER_20_197
*920 FILLER_20_209
*921 FILLER_20_221
*922 FILLER_20_233
*923 FILLER_20_245
*924 FILLER_20_251
*925 FILLER_20_253
*926 FILLER_20_265
*927 FILLER_20_27
*928 FILLER_20_271
*929 FILLER_20_285
*930 FILLER_20_29
*931 FILLER_20_297
*932 FILLER_20_3
*933 FILLER_20_305
*934 FILLER_20_309
*935 FILLER_20_321
*936 FILLER_20_333
*937 FILLER_20_345
*938 FILLER_20_357
*939 FILLER_20_363
*940 FILLER_20_365
*941 FILLER_20_377
*942 FILLER_20_389
*943 FILLER_20_401
*944 FILLER_20_41
*945 FILLER_20_53
*946 FILLER_20_65
*947 FILLER_20_77
*948 FILLER_20_83
*949 FILLER_20_85
*950 FILLER_20_94
*951 FILLER_21_105
*952 FILLER_21_111
*953 FILLER_21_113
*954 FILLER_21_125
*955 FILLER_21_137
*956 FILLER_21_142
*957 FILLER_21_15
*958 FILLER_21_154
*959 FILLER_21_166
*960 FILLER_21_169
*961 FILLER_21_181
*962 FILLER_21_193
*963 FILLER_21_204
*964 FILLER_21_216
*965 FILLER_21_225
*966 FILLER_21_246
*967 FILLER_21_255
*968 FILLER_21_267
*969 FILLER_21_27
*970 FILLER_21_279
*971 FILLER_21_293
*972 FILLER_21_3
*973 FILLER_21_305
*974 FILLER_21_317
*975 FILLER_21_329
*976 FILLER_21_335
*977 FILLER_21_337
*978 FILLER_21_349
*979 FILLER_21_361
*980 FILLER_21_373
*981 FILLER_21_385
*982 FILLER_21_39
*983 FILLER_21_391
*984 FILLER_21_393
*985 FILLER_21_405
*986 FILLER_21_51
*987 FILLER_21_55
*988 FILLER_21_57
*989 FILLER_21_69
*990 FILLER_21_81
*991 FILLER_21_93
*992 FILLER_22_115
*993 FILLER_22_126
*994 FILLER_22_133
*995 FILLER_22_15
*996 FILLER_22_159
*997 FILLER_22_171
*998 FILLER_22_183
*999 FILLER_22_195
*1000 FILLER_22_197
*1001 FILLER_22_209
*1002 FILLER_22_221
*1003 FILLER_22_233
*1004 FILLER_22_245
*1005 FILLER_22_251
*1006 FILLER_22_258
*1007 FILLER_22_262
*1008 FILLER_22_268
*1009 FILLER_22_27
*1010 FILLER_22_280
*1011 FILLER_22_284
*1012 FILLER_22_29
*1013 FILLER_22_290
*1014 FILLER_22_3
*1015 FILLER_22_302
*1016 FILLER_22_309
*1017 FILLER_22_321
*1018 FILLER_22_333
*1019 FILLER_22_345
*1020 FILLER_22_357
*1021 FILLER_22_363
*1022 FILLER_22_365
*1023 FILLER_22_377
*1024 FILLER_22_389
*1025 FILLER_22_401
*1026 FILLER_22_41
*1027 FILLER_22_53
*1028 FILLER_22_65
*1029 FILLER_22_77
*1030 FILLER_22_83
*1031 FILLER_22_85
*1032 FILLER_23_105
*1033 FILLER_23_111
*1034 FILLER_23_113
*1035 FILLER_23_125
*1036 FILLER_23_133
*1037 FILLER_23_142
*1038 FILLER_23_15
*1039 FILLER_23_163
*1040 FILLER_23_167
*1041 FILLER_23_169
*1042 FILLER_23_181
*1043 FILLER_23_196
*1044 FILLER_23_208
*1045 FILLER_23_220
*1046 FILLER_23_225
*1047 FILLER_23_237
*1048 FILLER_23_245
*1049 FILLER_23_259
*1050 FILLER_23_27
*1051 FILLER_23_271
*1052 FILLER_23_279
*1053 FILLER_23_281
*1054 FILLER_23_293
*1055 FILLER_23_3
*1056 FILLER_23_305
*1057 FILLER_23_317
*1058 FILLER_23_329
*1059 FILLER_23_335
*1060 FILLER_23_337
*1061 FILLER_23_349
*1062 FILLER_23_361
*1063 FILLER_23_373
*1064 FILLER_23_385
*1065 FILLER_23_39
*1066 FILLER_23_391
*1067 FILLER_23_393
*1068 FILLER_23_405
*1069 FILLER_23_51
*1070 FILLER_23_55
*1071 FILLER_23_57
*1072 FILLER_23_69
*1073 FILLER_23_81
*1074 FILLER_23_93
*1075 FILLER_24_109
*1076 FILLER_24_121
*1077 FILLER_24_133
*1078 FILLER_24_139
*1079 FILLER_24_141
*1080 FILLER_24_153
*1081 FILLER_24_165
*1082 FILLER_24_177
*1083 FILLER_24_189
*1084 FILLER_24_19
*1085 FILLER_24_195
*1086 FILLER_24_197
*1087 FILLER_24_209
*1088 FILLER_24_221
*1089 FILLER_24_233
*1090 FILLER_24_245
*1091 FILLER_24_251
*1092 FILLER_24_253
*1093 FILLER_24_265
*1094 FILLER_24_27
*1095 FILLER_24_277
*1096 FILLER_24_289
*1097 FILLER_24_29
*1098 FILLER_24_301
*1099 FILLER_24_307
*1100 FILLER_24_309
*1101 FILLER_24_321
*1102 FILLER_24_333
*1103 FILLER_24_345
*1104 FILLER_24_357
*1105 FILLER_24_363
*1106 FILLER_24_365
*1107 FILLER_24_377
*1108 FILLER_24_389
*1109 FILLER_24_401
*1110 FILLER_24_41
*1111 FILLER_24_53
*1112 FILLER_24_65
*1113 FILLER_24_7
*1114 FILLER_24_77
*1115 FILLER_24_83
*1116 FILLER_24_85
*1117 FILLER_24_97
*1118 FILLER_25_105
*1119 FILLER_25_111
*1120 FILLER_25_113
*1121 FILLER_25_125
*1122 FILLER_25_137
*1123 FILLER_25_149
*1124 FILLER_25_15
*1125 FILLER_25_161
*1126 FILLER_25_167
*1127 FILLER_25_169
*1128 FILLER_25_181
*1129 FILLER_25_196
*1130 FILLER_25_204
*1131 FILLER_25_209
*1132 FILLER_25_221
*1133 FILLER_25_225
*1134 FILLER_25_237
*1135 FILLER_25_249
*1136 FILLER_25_261
*1137 FILLER_25_27
*1138 FILLER_25_270
*1139 FILLER_25_278
*1140 FILLER_25_281
*1141 FILLER_25_293
*1142 FILLER_25_3
*1143 FILLER_25_304
*1144 FILLER_25_314
*1145 FILLER_25_326
*1146 FILLER_25_334
*1147 FILLER_25_337
*1148 FILLER_25_349
*1149 FILLER_25_361
*1150 FILLER_25_373
*1151 FILLER_25_385
*1152 FILLER_25_39
*1153 FILLER_25_391
*1154 FILLER_25_393
*1155 FILLER_25_405
*1156 FILLER_25_51
*1157 FILLER_25_55
*1158 FILLER_25_57
*1159 FILLER_25_69
*1160 FILLER_25_81
*1161 FILLER_25_93
*1162 FILLER_26_114
*1163 FILLER_26_126
*1164 FILLER_26_138
*1165 FILLER_26_141
*1166 FILLER_26_15
*1167 FILLER_26_160
*1168 FILLER_26_172
*1169 FILLER_26_184
*1170 FILLER_26_188
*1171 FILLER_26_197
*1172 FILLER_26_215
*1173 FILLER_26_227
*1174 FILLER_26_239
*1175 FILLER_26_251
*1176 FILLER_26_253
*1177 FILLER_26_265
*1178 FILLER_26_27
*1179 FILLER_26_277
*1180 FILLER_26_289
*1181 FILLER_26_29
*1182 FILLER_26_3
*1183 FILLER_26_301
*1184 FILLER_26_322
*1185 FILLER_26_334
*1186 FILLER_26_346
*1187 FILLER_26_358
*1188 FILLER_26_365
*1189 FILLER_26_377
*1190 FILLER_26_389
*1191 FILLER_26_401
*1192 FILLER_26_41
*1193 FILLER_26_53
*1194 FILLER_26_65
*1195 FILLER_26_77
*1196 FILLER_26_83
*1197 FILLER_26_85
*1198 FILLER_27_113
*1199 FILLER_27_125
*1200 FILLER_27_137
*1201 FILLER_27_149
*1202 FILLER_27_15
*1203 FILLER_27_161
*1204 FILLER_27_167
*1205 FILLER_27_169
*1206 FILLER_27_181
*1207 FILLER_27_193
*1208 FILLER_27_205
*1209 FILLER_27_209
*1210 FILLER_27_218
*1211 FILLER_27_225
*1212 FILLER_27_237
*1213 FILLER_27_249
*1214 FILLER_27_261
*1215 FILLER_27_27
*1216 FILLER_27_273
*1217 FILLER_27_279
*1218 FILLER_27_281
*1219 FILLER_27_293
*1220 FILLER_27_3
*1221 FILLER_27_305
*1222 FILLER_27_317
*1223 FILLER_27_329
*1224 FILLER_27_335
*1225 FILLER_27_337
*1226 FILLER_27_349
*1227 FILLER_27_361
*1228 FILLER_27_373
*1229 FILLER_27_385
*1230 FILLER_27_39
*1231 FILLER_27_391
*1232 FILLER_27_393
*1233 FILLER_27_397
*1234 FILLER_27_51
*1235 FILLER_27_55
*1236 FILLER_27_57
*1237 FILLER_27_69
*1238 FILLER_27_81
*1239 FILLER_28_109
*1240 FILLER_28_121
*1241 FILLER_28_133
*1242 FILLER_28_139
*1243 FILLER_28_141
*1244 FILLER_28_15
*1245 FILLER_28_153
*1246 FILLER_28_165
*1247 FILLER_28_177
*1248 FILLER_28_189
*1249 FILLER_28_195
*1250 FILLER_28_197
*1251 FILLER_28_209
*1252 FILLER_28_213
*1253 FILLER_28_227
*1254 FILLER_28_233
*1255 FILLER_28_258
*1256 FILLER_28_27
*1257 FILLER_28_270
*1258 FILLER_28_282
*1259 FILLER_28_29
*1260 FILLER_28_294
*1261 FILLER_28_3
*1262 FILLER_28_306
*1263 FILLER_28_330
*1264 FILLER_28_342
*1265 FILLER_28_354
*1266 FILLER_28_362
*1267 FILLER_28_365
*1268 FILLER_28_377
*1269 FILLER_28_389
*1270 FILLER_28_401
*1271 FILLER_28_41
*1272 FILLER_28_53
*1273 FILLER_28_65
*1274 FILLER_28_77
*1275 FILLER_28_83
*1276 FILLER_28_85
*1277 FILLER_28_91
*1278 FILLER_29_110
*1279 FILLER_29_113
*1280 FILLER_29_125
*1281 FILLER_29_15
*1282 FILLER_29_165
*1283 FILLER_29_169
*1284 FILLER_29_181
*1285 FILLER_29_193
*1286 FILLER_29_205
*1287 FILLER_29_213
*1288 FILLER_29_220
*1289 FILLER_29_225
*1290 FILLER_29_237
*1291 FILLER_29_250
*1292 FILLER_29_262
*1293 FILLER_29_27
*1294 FILLER_29_274
*1295 FILLER_29_281
*1296 FILLER_29_293
*1297 FILLER_29_3
*1298 FILLER_29_305
*1299 FILLER_29_317
*1300 FILLER_29_331
*1301 FILLER_29_335
*1302 FILLER_29_337
*1303 FILLER_29_349
*1304 FILLER_29_361
*1305 FILLER_29_373
*1306 FILLER_29_385
*1307 FILLER_29_39
*1308 FILLER_29_391
*1309 FILLER_29_393
*1310 FILLER_29_405
*1311 FILLER_29_51
*1312 FILLER_29_55
*1313 FILLER_29_57
*1314 FILLER_29_69
*1315 FILLER_29_81
*1316 FILLER_29_92
*1317 FILLER_29_98
*1318 FILLER_2_109
*1319 FILLER_2_118
*1320 FILLER_2_130
*1321 FILLER_2_138
*1322 FILLER_2_15
*1323 FILLER_2_158
*1324 FILLER_2_177
*1325 FILLER_2_189
*1326 FILLER_2_195
*1327 FILLER_2_197
*1328 FILLER_2_205
*1329 FILLER_2_220
*1330 FILLER_2_228
*1331 FILLER_2_236
*1332 FILLER_2_248
*1333 FILLER_2_253
*1334 FILLER_2_265
*1335 FILLER_2_27
*1336 FILLER_2_277
*1337 FILLER_2_289
*1338 FILLER_2_29
*1339 FILLER_2_3
*1340 FILLER_2_301
*1341 FILLER_2_307
*1342 FILLER_2_309
*1343 FILLER_2_321
*1344 FILLER_2_333
*1345 FILLER_2_345
*1346 FILLER_2_357
*1347 FILLER_2_363
*1348 FILLER_2_365
*1349 FILLER_2_377
*1350 FILLER_2_389
*1351 FILLER_2_401
*1352 FILLER_2_41
*1353 FILLER_2_53
*1354 FILLER_2_65
*1355 FILLER_2_77
*1356 FILLER_2_83
*1357 FILLER_2_85
*1358 FILLER_2_97
*1359 FILLER_30_109
*1360 FILLER_30_121
*1361 FILLER_30_133
*1362 FILLER_30_139
*1363 FILLER_30_141
*1364 FILLER_30_15
*1365 FILLER_30_153
*1366 FILLER_30_165
*1367 FILLER_30_188
*1368 FILLER_30_197
*1369 FILLER_30_209
*1370 FILLER_30_221
*1371 FILLER_30_228
*1372 FILLER_30_247
*1373 FILLER_30_251
*1374 FILLER_30_253
*1375 FILLER_30_265
*1376 FILLER_30_27
*1377 FILLER_30_273
*1378 FILLER_30_288
*1379 FILLER_30_29
*1380 FILLER_30_3
*1381 FILLER_30_300
*1382 FILLER_30_309
*1383 FILLER_30_321
*1384 FILLER_30_333
*1385 FILLER_30_345
*1386 FILLER_30_357
*1387 FILLER_30_363
*1388 FILLER_30_365
*1389 FILLER_30_377
*1390 FILLER_30_389
*1391 FILLER_30_397
*1392 FILLER_30_41
*1393 FILLER_30_53
*1394 FILLER_30_65
*1395 FILLER_30_77
*1396 FILLER_30_83
*1397 FILLER_30_85
*1398 FILLER_30_97
*1399 FILLER_31_105
*1400 FILLER_31_111
*1401 FILLER_31_113
*1402 FILLER_31_121
*1403 FILLER_31_126
*1404 FILLER_31_139
*1405 FILLER_31_147
*1406 FILLER_31_15
*1407 FILLER_31_152
*1408 FILLER_31_164
*1409 FILLER_31_169
*1410 FILLER_31_181
*1411 FILLER_31_189
*1412 FILLER_31_194
*1413 FILLER_31_206
*1414 FILLER_31_218
*1415 FILLER_31_225
*1416 FILLER_31_237
*1417 FILLER_31_255
*1418 FILLER_31_267
*1419 FILLER_31_27
*1420 FILLER_31_279
*1421 FILLER_31_281
*1422 FILLER_31_289
*1423 FILLER_31_294
*1424 FILLER_31_3
*1425 FILLER_31_308
*1426 FILLER_31_320
*1427 FILLER_31_332
*1428 FILLER_31_337
*1429 FILLER_31_349
*1430 FILLER_31_361
*1431 FILLER_31_373
*1432 FILLER_31_385
*1433 FILLER_31_39
*1434 FILLER_31_391
*1435 FILLER_31_393
*1436 FILLER_31_405
*1437 FILLER_31_51
*1438 FILLER_31_55
*1439 FILLER_31_57
*1440 FILLER_31_69
*1441 FILLER_31_81
*1442 FILLER_31_93
*1443 FILLER_32_101
*1444 FILLER_32_107
*1445 FILLER_32_119
*1446 FILLER_32_131
*1447 FILLER_32_139
*1448 FILLER_32_141
*1449 FILLER_32_15
*1450 FILLER_32_153
*1451 FILLER_32_165
*1452 FILLER_32_174
*1453 FILLER_32_186
*1454 FILLER_32_194
*1455 FILLER_32_197
*1456 FILLER_32_209
*1457 FILLER_32_221
*1458 FILLER_32_233
*1459 FILLER_32_245
*1460 FILLER_32_251
*1461 FILLER_32_253
*1462 FILLER_32_265
*1463 FILLER_32_27
*1464 FILLER_32_277
*1465 FILLER_32_281
*1466 FILLER_32_29
*1467 FILLER_32_3
*1468 FILLER_32_301
*1469 FILLER_32_307
*1470 FILLER_32_309
*1471 FILLER_32_321
*1472 FILLER_32_333
*1473 FILLER_32_345
*1474 FILLER_32_357
*1475 FILLER_32_363
*1476 FILLER_32_365
*1477 FILLER_32_377
*1478 FILLER_32_389
*1479 FILLER_32_401
*1480 FILLER_32_41
*1481 FILLER_32_53
*1482 FILLER_32_65
*1483 FILLER_32_77
*1484 FILLER_32_83
*1485 FILLER_32_85
*1486 FILLER_32_97
*1487 FILLER_33_101
*1488 FILLER_33_109
*1489 FILLER_33_113
*1490 FILLER_33_125
*1491 FILLER_33_137
*1492 FILLER_33_149
*1493 FILLER_33_15
*1494 FILLER_33_161
*1495 FILLER_33_167
*1496 FILLER_33_169
*1497 FILLER_33_181
*1498 FILLER_33_193
*1499 FILLER_33_205
*1500 FILLER_33_217
*1501 FILLER_33_223
*1502 FILLER_33_225
*1503 FILLER_33_237
*1504 FILLER_33_249
*1505 FILLER_33_261
*1506 FILLER_33_27
*1507 FILLER_33_273
*1508 FILLER_33_279
*1509 FILLER_33_281
*1510 FILLER_33_293
*1511 FILLER_33_3
*1512 FILLER_33_305
*1513 FILLER_33_317
*1514 FILLER_33_329
*1515 FILLER_33_335
*1516 FILLER_33_337
*1517 FILLER_33_349
*1518 FILLER_33_361
*1519 FILLER_33_373
*1520 FILLER_33_385
*1521 FILLER_33_39
*1522 FILLER_33_391
*1523 FILLER_33_393
*1524 FILLER_33_405
*1525 FILLER_33_51
*1526 FILLER_33_55
*1527 FILLER_33_57
*1528 FILLER_33_69
*1529 FILLER_33_81
*1530 FILLER_33_93
*1531 FILLER_34_105
*1532 FILLER_34_110
*1533 FILLER_34_122
*1534 FILLER_34_134
*1535 FILLER_34_141
*1536 FILLER_34_153
*1537 FILLER_34_165
*1538 FILLER_34_177
*1539 FILLER_34_187
*1540 FILLER_34_19
*1541 FILLER_34_195
*1542 FILLER_34_197
*1543 FILLER_34_205
*1544 FILLER_34_212
*1545 FILLER_34_224
*1546 FILLER_34_236
*1547 FILLER_34_248
*1548 FILLER_34_253
*1549 FILLER_34_265
*1550 FILLER_34_27
*1551 FILLER_34_277
*1552 FILLER_34_289
*1553 FILLER_34_29
*1554 FILLER_34_301
*1555 FILLER_34_307
*1556 FILLER_34_309
*1557 FILLER_34_321
*1558 FILLER_34_333
*1559 FILLER_34_345
*1560 FILLER_34_357
*1561 FILLER_34_363
*1562 FILLER_34_365
*1563 FILLER_34_377
*1564 FILLER_34_389
*1565 FILLER_34_401
*1566 FILLER_34_41
*1567 FILLER_34_53
*1568 FILLER_34_65
*1569 FILLER_34_7
*1570 FILLER_34_77
*1571 FILLER_34_83
*1572 FILLER_34_85
*1573 FILLER_34_97
*1574 FILLER_35_105
*1575 FILLER_35_113
*1576 FILLER_35_12
*1577 FILLER_35_127
*1578 FILLER_35_139
*1579 FILLER_35_151
*1580 FILLER_35_163
*1581 FILLER_35_167
*1582 FILLER_35_176
*1583 FILLER_35_188
*1584 FILLER_35_200
*1585 FILLER_35_212
*1586 FILLER_35_225
*1587 FILLER_35_237
*1588 FILLER_35_24
*1589 FILLER_35_249
*1590 FILLER_35_257
*1591 FILLER_35_266
*1592 FILLER_35_278
*1593 FILLER_35_288
*1594 FILLER_35_300
*1595 FILLER_35_312
*1596 FILLER_35_324
*1597 FILLER_35_337
*1598 FILLER_35_349
*1599 FILLER_35_36
*1600 FILLER_35_361
*1601 FILLER_35_373
*1602 FILLER_35_385
*1603 FILLER_35_391
*1604 FILLER_35_393
*1605 FILLER_35_405
*1606 FILLER_35_48
*1607 FILLER_35_57
*1608 FILLER_35_69
*1609 FILLER_35_81
*1610 FILLER_35_93
*1611 FILLER_36_101
*1612 FILLER_36_136
*1613 FILLER_36_141
*1614 FILLER_36_149
*1615 FILLER_36_168
*1616 FILLER_36_180
*1617 FILLER_36_19
*1618 FILLER_36_192
*1619 FILLER_36_197
*1620 FILLER_36_203
*1621 FILLER_36_209
*1622 FILLER_36_221
*1623 FILLER_36_233
*1624 FILLER_36_245
*1625 FILLER_36_251
*1626 FILLER_36_253
*1627 FILLER_36_261
*1628 FILLER_36_265
*1629 FILLER_36_27
*1630 FILLER_36_271
*1631 FILLER_36_277
*1632 FILLER_36_289
*1633 FILLER_36_29
*1634 FILLER_36_301
*1635 FILLER_36_307
*1636 FILLER_36_309
*1637 FILLER_36_321
*1638 FILLER_36_333
*1639 FILLER_36_345
*1640 FILLER_36_357
*1641 FILLER_36_363
*1642 FILLER_36_365
*1643 FILLER_36_377
*1644 FILLER_36_389
*1645 FILLER_36_401
*1646 FILLER_36_41
*1647 FILLER_36_53
*1648 FILLER_36_65
*1649 FILLER_36_7
*1650 FILLER_36_77
*1651 FILLER_36_83
*1652 FILLER_36_85
*1653 FILLER_36_97
*1654 FILLER_37_105
*1655 FILLER_37_111
*1656 FILLER_37_113
*1657 FILLER_37_138
*1658 FILLER_37_150
*1659 FILLER_37_178
*1660 FILLER_37_18
*1661 FILLER_37_190
*1662 FILLER_37_202
*1663 FILLER_37_208
*1664 FILLER_37_216
*1665 FILLER_37_225
*1666 FILLER_37_248
*1667 FILLER_37_260
*1668 FILLER_37_272
*1669 FILLER_37_281
*1670 FILLER_37_293
*1671 FILLER_37_30
*1672 FILLER_37_305
*1673 FILLER_37_317
*1674 FILLER_37_329
*1675 FILLER_37_335
*1676 FILLER_37_337
*1677 FILLER_37_349
*1678 FILLER_37_361
*1679 FILLER_37_373
*1680 FILLER_37_385
*1681 FILLER_37_391
*1682 FILLER_37_393
*1683 FILLER_37_405
*1684 FILLER_37_42
*1685 FILLER_37_54
*1686 FILLER_37_57
*1687 FILLER_37_6
*1688 FILLER_37_69
*1689 FILLER_37_81
*1690 FILLER_37_93
*1691 FILLER_38_109
*1692 FILLER_38_121
*1693 FILLER_38_133
*1694 FILLER_38_141
*1695 FILLER_38_15
*1696 FILLER_38_153
*1697 FILLER_38_165
*1698 FILLER_38_177
*1699 FILLER_38_189
*1700 FILLER_38_195
*1701 FILLER_38_204
*1702 FILLER_38_216
*1703 FILLER_38_228
*1704 FILLER_38_240
*1705 FILLER_38_266
*1706 FILLER_38_27
*1707 FILLER_38_278
*1708 FILLER_38_29
*1709 FILLER_38_290
*1710 FILLER_38_3
*1711 FILLER_38_302
*1712 FILLER_38_309
*1713 FILLER_38_321
*1714 FILLER_38_333
*1715 FILLER_38_345
*1716 FILLER_38_357
*1717 FILLER_38_363
*1718 FILLER_38_365
*1719 FILLER_38_377
*1720 FILLER_38_389
*1721 FILLER_38_401
*1722 FILLER_38_41
*1723 FILLER_38_53
*1724 FILLER_38_65
*1725 FILLER_38_77