*SPEF "ieee 1481-1999"
*DESIGN "mult4_SarsaNStepsRuido_e9_SARSA_RUIDO_e9_SARSA_RUIDO_e9_SARSA_RUIDO_e9"
*DATE "18:45:27 Tuesday September 16, 2025"
*VENDOR "The OpenROAD Project"
*PROGRAM "OpenROAD"
*VERSION "edf00dff99f6c40d67a30c0e22a8191c5d2ed9d6"
*DESIGN_FLOW "NAME_SCOPE LOCAL" "PIN_CAP NONE"
*DIVIDER /
*DELIMITER :
*BUS_DELIMITER []
*T_UNIT 1 NS
*C_UNIT 1 PF
*R_UNIT 1 OHM
*L_UNIT 1 HENRY

*NAME_MAP
*1 A[0]
*2 A[1]
*3 A[2]
*4 A[3]
*5 B[0]
*6 B[1]
*7 B[2]
*8 B[3]
*9 net16
*10 P[1]
*11 P[2]
*12 P[3]
*13 P[4]
*14 P[5]
*15 P[6]
*16 P[7]
*19 _000_
*20 _001_
*21 _002_
*22 _003_
*23 _004_
*24 _005_
*25 _006_
*26 _007_
*27 _008_
*28 _009_
*29 _010_
*30 _011_
*31 _012_
*32 _013_
*33 _014_
*34 _015_
*35 _016_
*36 _017_
*37 _018_
*38 _019_
*39 _020_
*40 _021_
*41 _022_
*42 _023_
*43 _024_
*44 _025_
*45 _026_
*46 _027_
*47 _028_
*48 _029_
*49 _030_
*50 _031_
*51 _032_
*52 _033_
*53 _034_
*54 _035_
*55 _036_
*56 _037_
*57 _038_
*58 _039_
*59 _040_
*60 _041_
*61 _042_
*62 _043_
*63 _044_
*64 _045_
*65 _046_
*66 _047_
*67 _048_
*68 _049_
*69 net1
*70 net10
*71 net11
*72 net12
*73 net13
*74 net14
*75 net15
*76 net2
*77 net3
*78 net4
*79 net5
*80 net6
*81 net7
*82 net8
*83 net9
*84 FILLER_0_11
*85 FILLER_0_24
*86 FILLER_0_29
*87 FILLER_0_3
*88 FILLER_0_52
*89 FILLER_0_57
*90 FILLER_0_69
*91 FILLER_1_18
*92 FILLER_1_64
*93 FILLER_1_76
*94 FILLER_2_13
*95 FILLER_2_29
*96 FILLER_2_33
*97 FILLER_2_39
*98 FILLER_2_49
*99 FILLER_2_55
*100 FILLER_2_62
*101 FILLER_2_77
*102 FILLER_3_12
*103 FILLER_3_24
*104 FILLER_3_39
*105 FILLER_3_51
*106 FILLER_3_55
*107 FILLER_3_57
*108 FILLER_3_66
*109 FILLER_3_79
*110 FILLER_4_10
*111 FILLER_4_16
*112 FILLER_4_29
*113 FILLER_4_41
*114 FILLER_4_53
*115 FILLER_4_60
*116 FILLER_4_72
*117 FILLER_4_76
*118 FILLER_5_10
*119 FILLER_5_23
*120 FILLER_5_35
*121 FILLER_5_47
*122 FILLER_5_55
*123 FILLER_5_57
*124 FILLER_5_6
*125 FILLER_5_69
*126 FILLER_5_77
*127 FILLER_6_11
*128 FILLER_6_27
*129 FILLER_6_3
*130 FILLER_6_36
*131 FILLER_6_65
*132 FILLER_6_69
*133 FILLER_7_19
*134 FILLER_7_27
*135 FILLER_7_36
*136 FILLER_7_48
*137 FILLER_7_54
*138 FILLER_7_64
*139 FILLER_7_7
*140 FILLER_7_73
*141 FILLER_8_26
*142 FILLER_8_29
*143 FILLER_8_3
*144 FILLER_8_36
*145 FILLER_8_48
*146 FILLER_8_65
*147 FILLER_8_73
*148 FILLER_9_18
*149 FILLER_9_26
*150 FILLER_9_29
*151 FILLER_9_44
*152 FILLER_9_49
*153 FILLER_9_55
*154 FILLER_9_57
*155 FILLER_9_6
*156 FILLER_9_61
*157 FILLER_9_73
*158 PHY_EDGE_ROW_0_Left_10
*159 PHY_EDGE_ROW_0_Right_0
*160 PHY_EDGE_ROW_1_Left_11
*161 PHY_EDGE_ROW_1_Right_1
*162 PHY_EDGE_ROW_2_Left_12
*163 PHY_EDGE_ROW_2_Right_2
*164 PHY_EDGE_ROW_3_Left_13
*165 PHY_EDGE_ROW_3_Right_3
*166 PHY_EDGE_ROW_4_Left_14
*167 PHY_EDGE_ROW_4_Right_4
*168 PHY_EDGE_ROW_5_Left_15
*169 PHY_EDGE_ROW_5_Right_5
*170 PHY_EDGE_ROW_6_Left_16
*171 PHY_EDGE_ROW_6_Right_6
*172 PHY_EDGE_ROW_7_Left_17
*173 PHY_EDGE_ROW_7_Right_7
*174 PHY_EDGE_ROW_8_Left_18
*175 PHY_EDGE_ROW_8_Right_8
*176 PHY_EDGE_ROW_9_Left_19
*177 PHY_EDGE_ROW_9_Right_9
*178 TAP_TAPCELL_ROW_0_20
*179 TAP_TAPCELL_ROW_0_21
*180 TAP_TAPCELL_ROW_1_22
*181 TAP_TAPCELL_ROW_2_23
*182 TAP_TAPCELL_ROW_3_24
*183 TAP_TAPCELL_ROW_4_25
*184 TAP_TAPCELL_ROW_5_26
*185 TAP_TAPCELL_ROW_6_27
*186 TAP_TAPCELL_ROW_7_28
*187 TAP_TAPCELL_ROW_8_29
*188 TAP_TAPCELL_ROW_9_30
*189 TAP_TAPCELL_ROW_9_31
*190 _050_
*191 _051_
*192 _052_
*193 _053_
*194 _054_
*195 _055_
*196 _056_
*197 _057_
*198 _058_
*199 _059_
*200 _060_
*201 _061_
*202 _062_
*203 _063_
*204 _064_
*205 _065_
*206 _066_
*207 _067_
*208 _068_
*209 _069_
*210 _070_
*211 _071_
*212 _072_
*213 _073_
*214 _074_
*215 _075_
*216 _076_
*217 _077_
*218 _078_
*219 _079_
*220 _080_
*221 _081_
*222 _082_
*223 _083_
*224 _084_
*225 _085_
*226 _086_
*227 _087_
*228 _088_
*229 _089_
*230 _090_
*231 _091_
*232 _092_
*233 _093_
*234 _094_
*235 _095_
*236 _096_
*237 _097_
*238 _098_
*239 _099_
*240 _100_
*241 _101_
*242 _102_
*243 _103_
*244 _104_
*245 _105_
*246 _106_
*247 input1
*248 input2
*249 input3
*250 input4
*251 input5
*252 input6
*253 input7
*254 input8
*255 mult4_SarsaNStepsRuido_e9_SARSA_RUIDO_e9_SARSA_RUIDO_e9_SARSA_RUIDO_e9_16
*256 output10
*257 output11
*258 output12
*259 output13
*260 output14
*261 output15
*262 output9

*PORTS
A[0] I
A[1] I
A[2] I
A[3] I
B[0] I
B[1] I
B[2] I
B[3] I
P[0] O
P[1] O
P[2] O
P[3] O
P[4] O
P[5] O
P[6] O
P[7] O

*D_NET *1 0.000715702
*CONN
*P A[0] I
*I *247:A I *D sky130_fd_sc_hd__clkbuf_2
*CAP
1 A[0] 0.000302099
2 *247:A 0.000302099
3 *247:A *248:A 2.71788e-05
4 *247:A *253:A 2.71788e-05
5 *247:A *69:12 5.71472e-05
*RES
1 A[0] *247:A 21.1946 
*END

*D_NET *2 0.000586245
*CONN
*P A[1] I
*I *248:A I *D sky130_fd_sc_hd__dlymetal6s2s_1
*CAP
1 A[1] 0.000265944
2 *248:A 0.000265944
3 *248:A P[0] 2.71788e-05
4 *247:A *248:A 2.71788e-05
*RES
1 A[1] *248:A 20.4803 
*END

*D_NET *3 0.00153516
*CONN
*P A[2] I
*I *249:A I *D sky130_fd_sc_hd__clkbuf_2
*CAP
1 A[2] 0.000660953
2 *249:A 0.000660953
3 *249:A *201:A 9.99853e-05
4 *249:A *252:A 0
5 *249:A *29:12 1.32552e-05
6 *249:A *77:14 2.27416e-05
7 *249:A *80:41 7.72745e-05
*RES
1 A[2] *249:A 26.05 
*END

*D_NET *4 0.000690429
*CONN
*P A[3] I
*I *250:A I *D sky130_fd_sc_hd__buf_1
*CAP
1 A[3] 0.000310035
2 *250:A 0.000310035
3 *250:A *254:A 2.87684e-05
4 *250:A *78:12 4.15914e-05
5 *250:A *78:23 0
*RES
1 A[3] *250:A 20.2479 
*END

*D_NET *5 0.0014365
*CONN
*P B[0] I
*I *251:A I *D sky130_fd_sc_hd__dlymetal6s2s_1
*CAP
1 B[0] 0.000497291
2 *251:A 0.000497291
3 *251:A P[1] 0
4 *251:A *193:B 8.14342e-05
5 *251:A *198:A 0.000220448
6 *251:A *199:S 5.33005e-05
7 *251:A *252:A 0
8 *251:A *76:28 3.34366e-05
9 *251:A *79:8 5.33005e-05
*RES
1 B[0] *251:A 24.2643 
*END

*D_NET *6 0.000882288
*CONN
*P B[1] I
*I *252:A I *D sky130_fd_sc_hd__dlymetal6s2s_1
*CAP
1 B[1] 0.000413529
2 *252:A 0.000413529
3 *252:A *198:A 0
4 *252:A *80:6 5.52302e-05
5 *249:A *252:A 0
6 *251:A *252:A 0
*RES
1 B[1] *252:A 21.8357 
*END

*D_NET *7 0.000676224
*CONN
*P B[2] I
*I *253:A I *D sky130_fd_sc_hd__buf_1
*CAP
1 B[2] 0.000324523
2 *253:A 0.000324523
3 *253:A *254:A 0
4 *253:A *81:28 0
5 *247:A *253:A 2.71788e-05
*RES
1 B[2] *253:A 21.391 
*END

*D_NET *8 0.00063328
*CONN
*P B[3] I
*I *254:A I *D sky130_fd_sc_hd__clkbuf_2
*CAP
1 B[3] 0.000302256
2 *254:A 0.000302256
3 *250:A *254:A 2.87684e-05
4 *253:A *254:A 0
*RES
1 B[3] *254:A 20.891 
*END

*D_NET *9 0.000596334
*CONN
*P P[0] O
*I *255:LO O *D sky130_fd_sc_hd__conb_1
*CAP
1 P[0] 0.000284578
2 *255:LO 0.000284578
3 *248:A P[0] 2.71788e-05
*RES
1 *255:LO P[0] 20.4803 
*END

*D_NET *10 0.000883595
*CONN
*P P[1] O
*I *262:X O *D sky130_fd_sc_hd__buf_2
*CAP
1 P[1] 0.000428149
2 *262:X 0.000428149
3 P[1] *80:17 2.72967e-05
4 *251:A P[1] 0
*RES
1 *262:X P[1] 21.6393 
*END

*D_NET *11 0.000495693
*CONN
*P P[2] O
*I *256:X O *D sky130_fd_sc_hd__buf_2
*CAP
1 P[2] 0.000247846
2 *256:X 0.000247846
3 P[2] P[3] 0
*RES
1 *256:X P[2] 18.1949 
*END

*D_NET *12 0.000643545
*CONN
*P P[3] O
*I *257:X O *D sky130_fd_sc_hd__buf_2
*CAP
1 P[3] 0.0002904
2 *257:X 0.0002904
3 P[3] P[4] 0
4 P[3] *257:A 6.27457e-05
5 P[2] P[3] 0
*RES
1 *257:X P[3] 19.4092 
*END

*D_NET *13 0.000486179
*CONN
*P P[4] O
*I *258:X O *D sky130_fd_sc_hd__buf_2
*CAP
1 P[4] 0.000236992
2 *258:X 0.000236992
3 P[4] P[5] 0
4 P[4] *258:A 1.21955e-05
5 P[3] P[4] 0
*RES
1 *258:X P[4] 18.1949 
*END

*D_NET *14 0.000627935
*CONN
*P P[5] O
*I *259:X O *D sky130_fd_sc_hd__buf_2
*CAP
1 P[5] 0.000313968
2 *259:X 0.000313968
3 P[5] *259:A 0
4 P[4] P[5] 0
*RES
1 *259:X P[5] 19.4092 
*END

*D_NET *15 0.000951893
*CONN
*P P[6] O
*I *260:X O *D sky130_fd_sc_hd__buf_2
*CAP
1 P[6] 0.000475946
2 *260:X 0.000475946
*RES
1 *260:X P[6] 23.2643 
*END

*D_NET *16 0.00172053
*CONN
*P P[7] O
*I *261:X O *D sky130_fd_sc_hd__buf_2
*CAP
1 P[7] 0.000793734
2 *261:X 0.000793734
3 P[7] *242:A 7.57312e-05
4 P[7] *242:B 7.49387e-06
5 P[7] *260:A 4.98394e-05
*RES
1 *261:X P[7] 27.0857 
*END

*D_NET *19 0.000465553
*CONN
*I *192:A2 I *D sky130_fd_sc_hd__o211a_1
*I *190:Y O *D sky130_fd_sc_hd__inv_2
*CAP
1 *192:A2 0.000207222
2 *190:Y 0.000207222
3 *192:A2 *213:A 5.80706e-06
4 *192:A2 *213:B 4.53031e-05
*RES
1 *190:Y *192:A2 30.4929 
*END

*D_NET *20 0.00162577
*CONN
*I *193:A I *D sky130_fd_sc_hd__nor2_1
*I *191:Y O *D sky130_fd_sc_hd__a21oi_1
*CAP
1 *193:A 0.000439111
2 *191:Y 0.000439111
3 *193:A *190:A 0
4 *193:A *193:B 5.74562e-05
5 *193:A *196:B 9.25014e-06
6 *193:A *198:B 1.97695e-05
7 *193:A *213:B 3.34672e-05
8 *193:A *262:A 6.02956e-05
9 *193:A *76:14 7.32955e-05
10 *193:A *76:28 0.000312215
11 *193:A *80:17 0.000181803
*RES
1 *191:Y *193:A 35.6714 
*END

*D_NET *21 0.000854454
*CONN
*I *193:B I *D sky130_fd_sc_hd__nor2_1
*I *192:X O *D sky130_fd_sc_hd__o211a_1
*CAP
1 *193:B 0.000131121
2 *192:X 0.000131121
3 *193:B *196:B 5.41794e-05
4 *193:B *76:28 0.000215428
5 *193:B *79:8 4.08637e-05
6 *193:B *79:10 0.00014285
7 *193:A *193:B 5.74562e-05
8 *251:A *193:B 8.14342e-05
*RES
1 *192:X *193:B 31.9214 
*END

*D_NET *22 0.00177781
*CONN
*I *202:A I *D sky130_fd_sc_hd__xnor2_1
*I *206:A I *D sky130_fd_sc_hd__nand4_2
*I *207:B2 I *D sky130_fd_sc_hd__a22o_1
*I *194:Y O *D sky130_fd_sc_hd__nand2_1
*CAP
1 *202:A 0.000209172
2 *206:A 0.000166885
3 *207:B2 0
4 *194:Y 2.7888e-05
5 *22:12 0.000264144
6 *22:6 0.00033432
7 *202:A *194:A 0.000130419
8 *202:A *202:B 0.000126639
9 *202:A *256:A 0
10 *202:A *49:10 0.000188586
11 *206:A *216:A_N 0
12 *206:A *216:B 0
13 *206:A *217:A2 0
14 *206:A *23:30 3.22834e-05
15 *206:A *34:12 0.000148189
16 *206:A *41:10 5.33433e-05
17 *22:6 *194:A 1.24368e-05
18 *22:6 *222:B1 2.28499e-05
19 *22:12 *23:30 5.80706e-06
20 *22:12 *23:32 3.50799e-05
21 *22:12 *77:23 1.97695e-05
*RES
1 *194:Y *22:6 9.83571 
2 *22:6 *22:12 6.57143 
3 *22:12 *207:B2 13.8 
4 *22:12 *206:A 17.6036 
5 *22:6 *202:A 14.3714 
*END

*D_NET *23 0.00451429
*CONN
*I *206:B I *D sky130_fd_sc_hd__nand4_2
*I *207:A1 I *D sky130_fd_sc_hd__a22o_1
*I *200:A I *D sky130_fd_sc_hd__nor2_1
*I *201:A I *D sky130_fd_sc_hd__xor2_1
*I *195:Y O *D sky130_fd_sc_hd__nand2_2
*CAP
1 *206:B 0
2 *207:A1 0
3 *200:A 0
4 *201:A 0.000160957
5 *195:Y 0.000647933
6 *23:32 0.000298618
7 *23:30 0.000284248
8 *23:24 0.000794521
9 *201:A *200:B 2.42564e-05
10 *201:A *201:B 4.04221e-05
11 *201:A *77:14 5.19718e-05
12 *23:24 *204:A 0.000142856
13 *23:24 *206:C 1.55976e-05
14 *23:24 *207:A2 3.47878e-05
15 *23:24 *214:B 9.14771e-06
16 *23:24 *214:C 0.000185964
17 *23:24 *215:A1 5.76121e-05
18 *23:24 *215:A2 3.66822e-05
19 *23:24 *215:B1_N 9.71197e-05
20 *23:24 *31:6 0.000496665
21 *23:24 *40:10 2.6304e-05
22 *23:24 *40:21 5.37741e-06
23 *23:24 *41:10 4.35597e-05
24 *23:24 *42:16 0.000613856
25 *23:30 *207:A2 7.99428e-05
26 *23:30 *33:8 3.27461e-05
27 *23:30 *34:12 0.000146474
28 *23:32 *207:A2 1.00332e-05
29 *23:32 *77:14 3.4846e-06
30 *206:A *23:30 3.22834e-05
31 *249:A *201:A 9.99853e-05
32 *22:12 *23:30 5.80706e-06
33 *22:12 *23:32 3.50799e-05
*RES
1 *195:Y *23:24 35.1929 
2 *23:24 *23:30 7.89286 
3 *23:30 *23:32 2.25 
4 *23:32 *201:A 17.6036 
5 *23:32 *200:A 13.8 
6 *23:30 *207:A1 13.8 
7 *23:24 *206:B 9.3 
*END

*D_NET *24 0.00094429
*CONN
*I *199:S I *D sky130_fd_sc_hd__mux2_1
*I *196:X O *D sky130_fd_sc_hd__and3_1
*CAP
1 *199:S 0.000295799
2 *196:X 0.000295799
3 *199:S *79:6 4.88637e-05
4 *199:S *79:8 2.28598e-05
5 *199:S *79:71 0.000227668
6 *251:A *199:S 5.33005e-05
*RES
1 *196:X *199:S 24.5107 
*END

*D_NET *25 0.000953855
*CONN
*I *212:B I *D sky130_fd_sc_hd__and4b_1
*I *215:B1_N I *D sky130_fd_sc_hd__o21bai_1
*I *197:X O *D sky130_fd_sc_hd__and4_1
*CAP
1 *212:B 0.000147888
2 *215:B1_N 2.17614e-05
3 *197:X 8.79283e-05
4 *25:8 0.000257578
5 *212:B *215:A1 0
6 *212:B *69:19 5.52238e-05
7 *212:B *77:46 9.76928e-05
8 *212:B *82:42 4.46186e-06
9 *212:B *82:48 2.61337e-05
10 *215:B1_N *215:A2 9.71197e-05
11 *25:8 *77:46 6.09476e-05
12 *23:24 *215:B1_N 9.71197e-05
*RES
1 *197:X *25:8 15.4429 
2 *25:8 *215:B1_N 14.7464 
3 *25:8 *212:B 16.8893 
*END

*D_NET *26 0.00127542
*CONN
*I *199:A0 I *D sky130_fd_sc_hd__mux2_1
*I *198:Y O *D sky130_fd_sc_hd__nand2_1
*CAP
1 *199:A0 0.000448568
2 *198:Y 0.000448568
3 *199:A0 *80:6 0.000200855
4 *199:A0 *80:41 0.00016428
5 *199:A0 *80:52 1.31516e-05
*RES
1 *198:Y *199:A0 34.6 
*END

*D_NET *27 0.000455379
*CONN
*I *200:B I *D sky130_fd_sc_hd__nor2_1
*I *201:B I *D sky130_fd_sc_hd__xor2_1
*I *199:X O *D sky130_fd_sc_hd__mux2_1
*CAP
1 *200:B 5.87357e-05
2 *201:B 5.84153e-05
3 *199:X 0
4 *27:6 0.000117151
5 *200:B *77:23 2.84109e-05
6 *200:B *79:71 2.84109e-05
7 *200:B *80:41 2.09177e-05
8 *200:B *80:52 1.6271e-05
9 *201:B *80:41 6.23879e-05
10 *201:A *200:B 2.42564e-05
11 *201:A *201:B 4.04221e-05
*RES
1 *199:X *27:6 13.8 
2 *27:6 *201:B 15.4429 
3 *27:6 *200:B 15.3714 
*END

*D_NET *28 0.000550018
*CONN
*I *222:B1 I *D sky130_fd_sc_hd__a31o_1
*I *200:Y O *D sky130_fd_sc_hd__nor2_1
*CAP
1 *222:B1 6.20843e-05
2 *200:Y 6.20843e-05
3 *222:B1 *194:A 9.90431e-05
4 *222:B1 *77:23 3.39053e-05
5 *222:B1 *79:71 0.000270051
6 *22:6 *222:B1 2.28499e-05
*RES
1 *200:Y *222:B1 21.1893 
*END

*D_NET *29 0.00117588
*CONN
*I *202:B I *D sky130_fd_sc_hd__xnor2_1
*I *222:A3 I *D sky130_fd_sc_hd__a31o_1
*I *201:X O *D sky130_fd_sc_hd__xor2_1
*CAP
1 *202:B 9.32874e-05
2 *222:A3 0
3 *201:X 0.00026159
4 *29:12 0.000354878
5 *29:12 *222:A2 0.000183377
6 *29:12 *77:14 0.000142856
7 *202:A *202:B 0.000126639
8 *249:A *29:12 1.32552e-05
*RES
1 *201:X *29:12 22.5321 
2 *29:12 *222:A3 9.3 
3 *29:12 *202:B 11.4786 
*END

*D_NET *30 0.00576928
*CONN
*I *243:A1 I *D sky130_fd_sc_hd__a21oi_1
*I *238:C I *D sky130_fd_sc_hd__and3_1
*I *208:A_N I *D sky130_fd_sc_hd__nand3b_1
*I *209:B1_N I *D sky130_fd_sc_hd__a21bo_1
*I *203:Y O *D sky130_fd_sc_hd__nand2_1
*CAP
1 *243:A1 0.000296966
2 *238:C 1.54518e-05
3 *208:A_N 0.000263489
4 *209:B1_N 0
5 *203:Y 7.45202e-05
6 *30:40 0.000445477
7 *30:22 0.00129335
8 *30:10 0.00123744
9 *208:A_N *208:B 1.02821e-05
10 *208:A_N *208:C 0.00011263
11 *208:A_N *218:A 0
12 *208:A_N *33:12 5.52302e-05
13 *243:A1 *238:A 1.41029e-05
14 *243:A1 *240:A 5.76121e-05
15 *243:A1 *243:A2 0.000187095
16 *243:A1 *244:B1 5.7661e-06
17 *243:A1 *65:6 1.39726e-05
18 *243:A1 *78:12 6.05161e-06
19 *243:A1 *78:23 0.000101393
20 *30:10 *226:D 0.000107277
21 *30:10 *78:31 7.6644e-05
22 *30:22 *226:C 5.33005e-05
23 *30:22 *228:A 0.00038323
24 *30:22 *228:B 1.59373e-05
25 *30:22 *229:B_N 0.000232399
26 *30:22 *239:A1 2.89016e-05
27 *30:22 *239:A2 1.74352e-05
28 *30:22 *239:B1 5.52238e-05
29 *30:22 *52:6 3.40043e-05
30 *30:40 *226:A 0.000107503
31 *30:40 *226:B 2.26327e-05
32 *30:40 *238:A 5.33978e-05
33 *30:40 *78:23 6.81083e-05
34 *30:40 *78:25 0.000290745
35 *30:40 *78:31 3.17148e-05
*RES
1 *203:Y *30:10 15.3714 
2 *30:10 *30:22 19.2857 
3 *30:22 *209:B1_N 9.3 
4 *30:22 *208:A_N 13.9786 
5 *30:10 *30:40 4.98214 
6 *30:40 *238:C 13.9964 
7 *30:40 *243:A1 21.0143 
*END

*D_NET *31 0.00168029
*CONN
*I *207:A2 I *D sky130_fd_sc_hd__a22o_1
*I *206:C I *D sky130_fd_sc_hd__nand4_2
*I *204:X O *D sky130_fd_sc_hd__and2_1
*CAP
1 *207:A2 0.000125872
2 *206:C 1.82471e-05
3 *204:X 0.000137235
4 *31:6 0.000281354
5 *207:A2 *206:D 7.73206e-05
6 *207:A2 *33:8 9.11048e-06
7 *207:A2 *41:10 4.17433e-05
8 *31:6 *41:10 0.000223898
9 *31:6 *42:16 0.000128487
10 *23:24 *206:C 1.55976e-05
11 *23:24 *207:A2 3.47878e-05
12 *23:24 *31:6 0.000496665
13 *23:30 *207:A2 7.99428e-05
14 *23:32 *207:A2 1.00332e-05
*RES
1 *204:X *31:6 14.3536 
2 *31:6 *206:C 9.72857 
3 *31:6 *207:A2 21.3893 
*END

*D_NET *32 0.000986618
*CONN
*I *207:B1 I *D sky130_fd_sc_hd__a22o_1
*I *206:D I *D sky130_fd_sc_hd__nand4_2
*I *205:X O *D sky130_fd_sc_hd__and2_1
*CAP
1 *207:B1 0.000107403
2 *206:D 0.000120238
3 *205:X 0.000103187
4 *32:6 0.000330828
5 *206:D *214:C 9.038e-05
6 *206:D *33:8 7.6612e-06
7 *207:B1 *34:12 9.3171e-05
8 *32:6 *34:12 6.05161e-06
9 *32:6 *80:58 5.03772e-05
10 *207:A2 *206:D 7.73206e-05
*RES
1 *205:X *32:6 11.0679 
2 *32:6 *206:D 20.8536 
3 *32:6 *207:B1 11.4964 
*END

*D_NET *33 0.00352293
*CONN
*I *233:A1 I *D sky130_fd_sc_hd__a21oi_1
*I *232:A I *D sky130_fd_sc_hd__nand3_1
*I *208:B I *D sky130_fd_sc_hd__nand3b_1
*I *209:A1 I *D sky130_fd_sc_hd__a21bo_1
*I *206:Y O *D sky130_fd_sc_hd__nand4_2
*CAP
1 *233:A1 0.000200768
2 *232:A 0
3 *208:B 0.000141551
4 *209:A1 0
5 *206:Y 0.000330091
6 *33:38 0.000572543
7 *33:12 0.000162779
8 *33:8 0.000723094
9 *208:B *208:C 0.000301948
10 *208:B *219:A2 0
11 *208:B *35:10 1.15281e-05
12 *208:B *36:6 0.000185643
13 *233:A1 *233:A2 0.000181803
14 *233:A1 *233:B1 3.77902e-06
15 *233:A1 *56:15 5.59417e-05
16 *33:8 *34:12 0.000272789
17 *33:38 *232:C 1.04232e-05
18 *33:38 *34:12 4.13122e-06
19 *33:38 *56:6 0.000126639
20 *33:38 *56:15 0.000122449
21 *206:D *33:8 7.6612e-06
22 *207:A2 *33:8 9.11048e-06
23 *208:A_N *208:B 1.02821e-05
24 *208:A_N *33:12 5.52302e-05
25 *23:30 *33:8 3.27461e-05
*RES
1 *206:Y *33:8 21.2107 
2 *33:8 *33:12 5.03571 
3 *33:12 *209:A1 9.3 
4 *33:12 *208:B 13.7643 
5 *33:8 *33:38 11.625 
6 *33:38 *232:A 9.3 
7 *33:38 *233:A1 12.7464 
*END

*D_NET *34 0.00231164
*CONN
*I *208:C I *D sky130_fd_sc_hd__nand3b_1
*I *209:A2 I *D sky130_fd_sc_hd__a21bo_1
*I *207:X O *D sky130_fd_sc_hd__a22o_1
*CAP
1 *208:C 6.33588e-05
2 *209:A2 0
3 *207:X 0.000547925
4 *34:12 0.000611284
5 *208:C *35:10 3.69047e-06
6 *34:12 *216:A_N 0
7 *34:12 *217:A2 0
8 *34:12 *35:10 0
9 *206:A *34:12 0.000148189
10 *207:B1 *34:12 9.3171e-05
11 *208:A_N *208:C 0.00011263
12 *208:B *208:C 0.000301948
13 *23:30 *34:12 0.000146474
14 *32:6 *34:12 6.05161e-06
15 *33:8 *34:12 0.000272789
16 *33:38 *34:12 4.13122e-06
*RES
1 *207:X *34:12 29.4071 
2 *34:12 *209:A2 9.3 
3 *34:12 *208:C 12.3357 
*END

*D_NET *35 0.00220486
*CONN
*I *219:A1 I *D sky130_fd_sc_hd__a21oi_1
*I *218:A I *D sky130_fd_sc_hd__and3_1
*I *233:A2 I *D sky130_fd_sc_hd__a21oi_1
*I *232:B I *D sky130_fd_sc_hd__nand3_1
*I *208:Y O *D sky130_fd_sc_hd__nand3b_1
*CAP
1 *219:A1 0.000180009
2 *218:A 2.23854e-05
3 *233:A2 0.000209623
4 *232:B 1.36997e-05
5 *208:Y 0
6 *35:36 0.000237576
7 *35:10 0.000587336
8 *35:4 0.000399196
9 *219:A1 *218:C 3.99846e-05
10 *219:A1 *219:A2 8.49803e-06
11 *219:A1 *219:B1 0.000130419
12 *219:A1 *36:6 1.03968e-05
13 *233:A2 *231:A 8.36602e-05
14 *233:A2 *233:B1 3.99614e-06
15 *233:A2 *56:15 5.33334e-05
16 *233:A2 *59:10 1.05524e-05
17 *35:10 *36:6 1.03968e-05
18 *35:10 *44:10 0
19 *35:10 *45:10 0
20 *35:10 *59:10 0
21 *35:36 *36:6 6.78055e-06
22 *208:A_N *218:A 0
23 *208:B *35:10 1.15281e-05
24 *208:C *35:10 3.69047e-06
25 *233:A1 *233:A2 0.000181803
26 *34:12 *35:10 0
*RES
1 *208:Y *35:4 9.3 
2 *35:4 *35:10 9.47321 
3 *35:10 *232:B 14.0768 
4 *35:10 *233:A2 18.0411 
5 *35:4 *35:36 0.535714 
6 *35:36 *218:A 9.72857 
7 *35:36 *219:A1 11.8893 
*END

*D_NET *36 0.001151
*CONN
*I *218:B I *D sky130_fd_sc_hd__and3_1
*I *219:A2 I *D sky130_fd_sc_hd__a21oi_1
*I *209:X O *D sky130_fd_sc_hd__a21bo_1
*CAP
1 *218:B 0
2 *219:A2 8.75178e-05
3 *209:X 0.000287521
4 *36:6 0.000375038
5 *219:A2 *218:C 3.99846e-05
6 *219:A2 *219:B1 9.90431e-05
7 *219:A2 *220:A 1.74352e-05
8 *219:A2 *220:B 0
9 *219:A2 *45:10 2.27416e-05
10 *208:B *219:A2 0
11 *208:B *36:6 0.000185643
12 *219:A1 *219:A2 8.49803e-06
13 *219:A1 *36:6 1.03968e-05
14 *35:10 *36:6 1.03968e-05
15 *35:36 *36:6 6.78055e-06
*RES
1 *209:X *36:6 13.1214 
2 *36:6 *219:A2 11.6929 
3 *36:6 *218:B 9.3 
*END

*D_NET *37 0.00361327
*CONN
*I *212:A_N I *D sky130_fd_sc_hd__and4b_1
*I *228:A I *D sky130_fd_sc_hd__xnor2_1
*I *239:A1 I *D sky130_fd_sc_hd__a21oi_1
*I *215:A1 I *D sky130_fd_sc_hd__o21bai_1
*I *210:X O *D sky130_fd_sc_hd__and4_1
*CAP
1 *212:A_N 3.85858e-05
2 *228:A 0.000143452
3 *239:A1 1.40568e-05
4 *215:A1 0.000233072
5 *210:X 0.000109955
6 *37:25 0.00039807
7 *37:8 0.000473633
8 *37:6 0.000148541
9 *212:A_N *210:C 8.66063e-05
10 *215:A1 *78:31 0
11 *215:A1 *82:48 0
12 *228:A *228:B 4.25176e-05
13 *228:A *229:B_N 0.000230475
14 *228:A *239:A2 0.000742529
15 *228:A *239:B1 5.52238e-05
16 *239:A1 *239:A2 5.52238e-05
17 *37:6 *210:C 0.000271345
18 *37:25 *227:A_N 9.24299e-05
19 *37:25 *229:D 7.80714e-06
20 *37:25 *78:25 0
21 *37:25 *78:31 0
22 *37:25 *82:42 0
23 *212:B *215:A1 0
24 *23:24 *215:A1 5.76121e-05
25 *30:22 *228:A 0.00038323
26 *30:22 *239:A1 2.89016e-05
*RES
1 *210:X *37:6 11.8893 
2 *37:6 *37:8 4.5 
3 *37:8 *215:A1 17.8357 
4 *37:8 *37:25 9.17857 
5 *37:25 *239:A1 9.83571 
6 *37:25 *228:A 16.8179 
7 *37:6 *212:A_N 10.2464 
*END

*D_NET *38 0.000624948
*CONN
*I *215:A2 I *D sky130_fd_sc_hd__o21bai_1
*I *211:Y O *D sky130_fd_sc_hd__nand2_1
*CAP
1 *215:A2 0.000182971
2 *211:Y 0.000182971
3 *215:A2 *204:A 5.52302e-05
4 *215:A2 *204:B 0
5 *215:A2 *77:46 6.07232e-05
6 *215:A2 *82:67 9.25014e-06
7 *215:B1_N *215:A2 9.71197e-05
8 *23:24 *215:A2 3.66822e-05
*RES
1 *211:Y *215:A2 31.4214 
*END

*D_NET *39 0.00269762
*CONN
*I *217:B1 I *D sky130_fd_sc_hd__a21o_1
*I *216:A_N I *D sky130_fd_sc_hd__and2b_1
*I *212:X O *D sky130_fd_sc_hd__and4b_1
*CAP
1 *217:B1 5.48115e-05
2 *216:A_N 0.000238933
3 *212:X 0.000826027
4 *39:8 0.00111977
5 *216:A_N *216:B 5.10822e-05
6 *216:A_N *217:A1 0.000128161
7 *216:A_N *217:A2 3.90417e-05
8 *216:A_N *221:B 0
9 *216:A_N *41:10 5.66157e-05
10 *39:8 *204:B 9.90367e-05
11 *39:8 *211:A 2.89114e-05
12 *39:8 *82:67 5.52302e-05
13 *206:A *216:A_N 0
14 *34:12 *216:A_N 0
*RES
1 *212:X *39:8 22.9964 
2 *39:8 *216:A_N 23.2821 
3 *39:8 *217:B1 10.2643 
*END

*D_NET *40 0.00422373
*CONN
*I *228:B I *D sky130_fd_sc_hd__xnor2_1
*I *239:A2 I *D sky130_fd_sc_hd__a21oi_1
*I *214:A_N I *D sky130_fd_sc_hd__and3b_1
*I *213:X O *D sky130_fd_sc_hd__and4_1
*CAP
1 *228:B 4.15606e-05
2 *239:A2 0.000234558
3 *214:A_N 0
4 *213:X 0.00037849
5 *40:21 0.000641502
6 *40:10 0.000743873
7 *239:A2 *229:A_N 0.000346541
8 *239:A2 *52:6 0.000186662
9 *40:10 *204:A 0
10 *40:10 *204:B 4.1331e-06
11 *40:10 *205:B 0.000532921
12 *40:21 *204:B 6.16864e-05
13 *40:21 *230:A 0.000146474
14 *40:21 *77:46 0
15 *228:A *228:B 4.25176e-05
16 *228:A *239:A2 0.000742529
17 *239:A1 *239:A2 5.52238e-05
18 *23:24 *40:10 2.6304e-05
19 *23:24 *40:21 5.37741e-06
20 *30:22 *228:B 1.59373e-05
21 *30:22 *239:A2 1.74352e-05
*RES
1 *213:X *40:10 21.1036 
2 *40:10 *214:A_N 13.8 
3 *40:10 *40:21 11.9107 
4 *40:21 *239:A2 17.6571 
5 *40:21 *228:B 10.2464 
*END

*D_NET *41 0.00230339
*CONN
*I *217:A1 I *D sky130_fd_sc_hd__a21o_1
*I *221:A I *D sky130_fd_sc_hd__xnor2_1
*I *214:X O *D sky130_fd_sc_hd__and3b_1
*CAP
1 *217:A1 3.33646e-05
2 *221:A 0.000167192
3 *214:X 0.000242721
4 *41:10 0.000443278
5 *217:A1 *217:A2 0.000119618
6 *41:10 *217:A2 5.83304e-05
7 *41:10 *42:16 0.000691564
8 *206:A *41:10 5.33433e-05
9 *207:A2 *41:10 4.17433e-05
10 *216:A_N *217:A1 0.000128161
11 *216:A_N *41:10 5.66157e-05
12 *23:24 *41:10 4.35597e-05
13 *31:6 *41:10 0.000223898
*RES
1 *214:X *41:10 21.6393 
2 *41:10 *221:A 16.3893 
3 *41:10 *217:A1 15.4429 
*END

*D_NET *42 0.00444305
*CONN
*I *217:A2 I *D sky130_fd_sc_hd__a21o_1
*I *216:B I *D sky130_fd_sc_hd__and2b_1
*I *215:Y O *D sky130_fd_sc_hd__o21bai_1
*CAP
1 *217:A2 0.000120465
2 *216:B 0.000213119
3 *215:Y 0.00103695
4 *42:16 0.00137054
5 *206:A *216:B 0
6 *206:A *217:A2 0
7 *216:A_N *216:B 5.10822e-05
8 *216:A_N *217:A2 3.90417e-05
9 *217:A1 *217:A2 0.000119618
10 *23:24 *42:16 0.000613856
11 *31:6 *42:16 0.000128487
12 *34:12 *217:A2 0
13 *41:10 *217:A2 5.83304e-05
14 *41:10 *42:16 0.000691564
*RES
1 *215:Y *42:16 28.9964 
2 *42:16 *216:B 17.3179 
3 *42:16 *217:A2 16.9607 
*END

*D_NET *43 0.000285872
*CONN
*I *221:B I *D sky130_fd_sc_hd__xnor2_1
*I *216:X O *D sky130_fd_sc_hd__and2b_1
*CAP
1 *221:B 0.000142936
2 *216:X 0.000142936
3 *221:B *245:A_N 0
4 *221:B *49:10 0
5 *216:A_N *221:B 0
*RES
1 *216:X *221:B 29.7786 
*END

*D_NET *44 0.000940217
*CONN
*I *219:B1 I *D sky130_fd_sc_hd__a21oi_1
*I *218:C I *D sky130_fd_sc_hd__and3_1
*I *217:X O *D sky130_fd_sc_hd__a21o_1
*CAP
1 *219:B1 6.20909e-05
2 *218:C 9.94534e-06
3 *217:X 0.000218824
4 *44:10 0.00029086
5 *219:B1 *220:A 3.57315e-05
6 *219:B1 *220:B 1.33343e-05
7 *219:A1 *218:C 3.99846e-05
8 *219:A1 *219:B1 0.000130419
9 *219:A2 *218:C 3.99846e-05
10 *219:A2 *219:B1 9.90431e-05
11 *35:10 *44:10 0
*RES
1 *217:X *44:10 22.0679 
2 *44:10 *218:C 9.69286 
3 *44:10 *219:B1 11.4786 
*END

*D_NET *45 0.00216913
*CONN
*I *220:A I *D sky130_fd_sc_hd__nor2_1
*I *241:B2 I *D sky130_fd_sc_hd__a221o_1
*I *236:B1 I *D sky130_fd_sc_hd__a21o_1
*I *218:X O *D sky130_fd_sc_hd__and3_1
*CAP
1 *220:A 0.000242126
2 *241:B2 0.000158166
3 *236:B1 0.000282451
4 *218:X 0
5 *45:10 0.000567158
6 *45:4 0.000368666
7 *220:A *220:B 0.000110319
8 *220:A *47:8 5.62995e-05
9 *236:B1 *231:A 0.000112744
10 *241:B2 *235:A 3.17148e-05
11 *241:B2 *241:A2 2.74584e-05
12 *241:B2 *58:12 2.85551e-05
13 *241:B2 *59:10 0.000101761
14 *45:10 *59:10 5.80706e-06
15 *219:A2 *220:A 1.74352e-05
16 *219:A2 *45:10 2.27416e-05
17 *219:B1 *220:A 3.57315e-05
18 *35:10 *45:10 0
*RES
1 *218:X *45:4 9.3 
2 *45:4 *45:10 6.375 
3 *45:10 *236:B1 18.8893 
4 *45:10 *241:B2 16.9429 
5 *45:4 *220:A 13.9964 
*END

*D_NET *46 0.00025168
*CONN
*I *220:B I *D sky130_fd_sc_hd__nor2_1
*I *219:Y O *D sky130_fd_sc_hd__a21oi_1
*CAP
1 *220:B 6.40135e-05
2 *219:Y 6.40135e-05
3 *219:A2 *220:B 0
4 *219:B1 *220:B 1.33343e-05
5 *220:A *220:B 0.000110319
*RES
1 *219:Y *220:B 20.2786 
*END

*D_NET *47 0.00129061
*CONN
*I *236:A1 I *D sky130_fd_sc_hd__a21o_1
*I *224:A I *D sky130_fd_sc_hd__xor2_1
*I *220:Y O *D sky130_fd_sc_hd__nor2_1
*CAP
1 *236:A1 7.62936e-05
2 *224:A 0.000158607
3 *220:Y 0.000174054
4 *47:8 0.000408955
5 *224:A *224:B 1.24368e-05
6 *224:A *50:34 0.000250915
7 *236:A1 *50:34 0.000153047
8 *220:A *47:8 5.62995e-05
*RES
1 *220:Y *47:8 15.9786 
2 *47:8 *224:A 17.4964 
3 *47:8 *236:A1 15.7464 
*END

*D_NET *48 0.000792275
*CONN
*I *223:A_N I *D sky130_fd_sc_hd__and2b_1
*I *245:B I *D sky130_fd_sc_hd__and2b_1
*I *221:Y O *D sky130_fd_sc_hd__xnor2_1
*CAP
1 *223:A_N 0
2 *245:B 0.000120144
3 *221:Y 0.000164397
4 *48:8 0.000284541
5 *245:B *245:A_N 2.28598e-05
6 *48:8 *245:A_N 0.000184745
7 *48:8 *50:8 1.55885e-05
*RES
1 *221:Y *48:8 12.7286 
2 *48:8 *245:B 11.4964 
3 *48:8 *223:A_N 9.3 
*END

*D_NET *49 0.00206056
*CONN
*I *245:A_N I *D sky130_fd_sc_hd__and2b_1
*I *223:B I *D sky130_fd_sc_hd__and2b_1
*I *222:X O *D sky130_fd_sc_hd__a31o_1
*CAP
1 *245:A_N 0.000104865
2 *223:B 0
3 *222:X 0.000612903
4 *49:10 0.000717768
5 *245:A_N *246:A 0
6 *245:A_N *50:8 9.92409e-05
7 *49:10 *246:A 0
8 *49:10 *256:A 0.000129595
9 *202:A *49:10 0.000188586
10 *221:B *245:A_N 0
11 *221:B *49:10 0
12 *245:B *245:A_N 2.28598e-05
13 *48:8 *245:A_N 0.000184745
*RES
1 *222:X *49:10 23.0321 
2 *49:10 *223:B 13.8 
3 *49:10 *245:A_N 16.7107 
*END

*D_NET *50 0.00336066
*CONN
*I *241:A1 I *D sky130_fd_sc_hd__a221o_1
*I *236:A2 I *D sky130_fd_sc_hd__a21o_1
*I *224:B I *D sky130_fd_sc_hd__xor2_1
*I *246:A I *D sky130_fd_sc_hd__nor2_1
*I *223:X O *D sky130_fd_sc_hd__and2b_1
*CAP
1 *241:A1 0.000385589
2 *236:A2 0
3 *224:B 5.67893e-05
4 *246:A 0.000276834
5 *223:X 0.000159558
6 *50:34 0.000623216
7 *50:21 0.000514489
8 *50:8 0.000656465
9 *241:A1 *237:B 0
10 *241:A1 *241:A2 1.46576e-05
11 *241:A1 *66:10 0.00014183
12 *246:A *246:B 0
13 *246:A *257:A 0
14 *50:21 *257:A 0
15 *50:34 *258:A 0
16 *224:A *224:B 1.24368e-05
17 *224:A *50:34 0.000250915
18 *236:A1 *50:34 0.000153047
19 *245:A_N *246:A 0
20 *245:A_N *50:8 9.92409e-05
21 *48:8 *50:8 1.55885e-05
22 *49:10 *246:A 0
*RES
1 *223:X *50:8 15.9786 
2 *50:8 *246:A 18.2107 
3 *50:8 *50:21 3.76786 
4 *50:21 *224:B 14.7643 
5 *50:21 *50:34 5.58929 
6 *50:34 *236:A2 13.8 
7 *50:34 *241:A1 20.3893 
*END

*D_NET *51 0.000206891
*CONN
*I *243:B1 I *D sky130_fd_sc_hd__a21oi_1
*I *225:Y O *D sky130_fd_sc_hd__nand2_1
*CAP
1 *243:B1 1.2176e-05
2 *225:Y 1.2176e-05
3 *243:B1 *225:A 5.71472e-05
4 *243:B1 *244:B1 2.44318e-05
5 *243:B1 *65:6 0.00010096
*RES
1 *225:Y *243:B1 19.5464 
*END

*D_NET *52 0.00177546
*CONN
*I *229:A_N I *D sky130_fd_sc_hd__and4bb_1
*I *227:A_N I *D sky130_fd_sc_hd__and3b_1
*I *226:X O *D sky130_fd_sc_hd__and4_1
*CAP
1 *229:A_N 0.000160694
2 *227:A_N 0.000130623
3 *226:X 0.000133558
4 *52:6 0.000424875
5 *227:A_N *229:D 0.000120624
6 *227:A_N *77:54 5.71472e-05
7 *227:A_N *78:25 0
8 *227:A_N *82:34 2.74584e-05
9 *52:6 *226:C 3.69047e-06
10 *52:6 *64:12 5.71472e-05
11 *239:A2 *229:A_N 0.000346541
12 *239:A2 *52:6 0.000186662
13 *30:22 *52:6 3.40043e-05
14 *37:25 *227:A_N 9.24299e-05
*RES
1 *226:X *52:6 12.3 
2 *52:6 *227:A_N 21.6929 
3 *52:6 *229:A_N 12.7107 
*END

*D_NET *53 0.00139806
*CONN
*I *230:A I *D sky130_fd_sc_hd__xor2_1
*I *227:X O *D sky130_fd_sc_hd__and3b_1
*CAP
1 *230:A 0.000506532
2 *227:X 0.000506532
3 *230:A *229:B_N 0.00010326
4 *230:A *230:B 0.000129868
5 *230:A *77:46 5.39166e-06
6 *40:21 *230:A 0.000146474
*RES
1 *227:X *230:A 35.7964 
*END

*D_NET *54 0.00099366
*CONN
*I *230:B I *D sky130_fd_sc_hd__xor2_1
*I *229:B_N I *D sky130_fd_sc_hd__and4bb_1
*I *228:Y O *D sky130_fd_sc_hd__xnor2_1
*CAP
1 *230:B 5.955e-05
2 *229:B_N 8.92789e-05
3 *228:Y 0
4 *54:6 0.000148829
5 *229:B_N *82:34 0
6 *230:B *82:34 0
7 *228:A *229:B_N 0.000230475
8 *230:A *229:B_N 0.00010326
9 *230:A *230:B 0.000129868
10 *30:22 *229:B_N 0.000232399
*RES
1 *228:Y *54:6 13.8 
2 *54:6 *229:B_N 17.3179 
3 *54:6 *230:B 15.4429 
*END

*D_NET *55 0.000133696
*CONN
*I *239:B1 I *D sky130_fd_sc_hd__a21oi_1
*I *229:X O *D sky130_fd_sc_hd__and4bb_1
*CAP
1 *239:B1 1.1624e-05
2 *229:X 1.1624e-05
3 *228:A *239:B1 5.52238e-05
4 *30:22 *239:B1 5.52238e-05
*RES
1 *229:X *239:B1 19.1357 
*END

*D_NET *56 0.00172672
*CONN
*I *231:A I *D sky130_fd_sc_hd__inv_2
*I *233:B1 I *D sky130_fd_sc_hd__a21oi_1
*I *232:C I *D sky130_fd_sc_hd__nand3_1
*I *230:X O *D sky130_fd_sc_hd__xor2_1
*CAP
1 *231:A 6.98452e-05
2 *233:B1 1.12103e-05
3 *232:C 1.99857e-05
4 *230:X 0.000351182
5 *56:15 0.000205708
6 *56:6 0.00049582
7 *233:A1 *233:B1 3.77902e-06
8 *233:A1 *56:15 5.59417e-05
9 *233:A2 *231:A 8.36602e-05
10 *233:A2 *233:B1 3.99614e-06
11 *233:A2 *56:15 5.33334e-05
12 *236:B1 *231:A 0.000112744
13 *33:38 *232:C 1.04232e-05
14 *33:38 *56:6 0.000126639
15 *33:38 *56:15 0.000122449
*RES
1 *230:X *56:6 15.5857 
2 *56:6 *232:C 9.72857 
3 *56:6 *56:15 3 
4 *56:15 *233:B1 9.72857 
5 *56:15 *231:A 11.4964 
*END

*D_NET *57 0.000259229
*CONN
*I *241:A2 I *D sky130_fd_sc_hd__a221o_1