*SPEF "ieee 1481-1999"
*DESIGN "SARSA_VENTAJA_e4"
*DATE "18:10:04 Tuesday September 16, 2025"
*VENDOR "The OpenROAD Project"
*PROGRAM "OpenROAD"
*VERSION "edf00dff99f6c40d67a30c0e22a8191c5d2ed9d6"
*DESIGN_FLOW "NAME_SCOPE LOCAL" "PIN_CAP NONE"
*DIVIDER /
*DELIMITER :
*BUS_DELIMITER []
*T_UNIT 1 NS
*C_UNIT 1 PF
*R_UNIT 1 OHM
*L_UNIT 1 HENRY

*NAME_MAP
*1 A[0]
*2 A[1]
*3 B[0]
*4 B[1]
*5 P[0]
*6 P[1]
*7 P[2]
*8 P[3]
*11 _0_
*12 _1_
*13 net1
*14 net2
*15 net3
*16 net4
*17 net5
*18 net6
*19 net7
*20 net8
*21 FILLER_0_15
*22 FILLER_0_27
*23 FILLER_0_29
*24 FILLER_0_3
*25 FILLER_0_41
*26 FILLER_0_53
*27 FILLER_0_57
*28 FILLER_0_69
*29 FILLER_1_15
*30 FILLER_1_27
*31 FILLER_1_3
*32 FILLER_1_39
*33 FILLER_1_51
*34 FILLER_1_55
*35 FILLER_1_57
*36 FILLER_1_69
*37 FILLER_2_18
*38 FILLER_2_26
*39 FILLER_2_29
*40 FILLER_2_41
*41 FILLER_2_53
*42 FILLER_2_6
*43 FILLER_2_65
*44 FILLER_2_77
*45 FILLER_3_15
*46 FILLER_3_27
*47 FILLER_3_3
*48 FILLER_3_39
*49 FILLER_3_51
*50 FILLER_3_55
*51 FILLER_3_57
*52 FILLER_3_69
*53 FILLER_4_21
*54 FILLER_4_27
*55 FILLER_4_29
*56 FILLER_4_41
*57 FILLER_4_53
*58 FILLER_4_6
*59 FILLER_4_65
*60 FILLER_4_77
*61 FILLER_5_27
*62 FILLER_5_39
*63 FILLER_5_51
*64 FILLER_5_55
*65 FILLER_5_57
*66 FILLER_5_69
*67 FILLER_5_7
*68 FILLER_6_17
*69 FILLER_6_25
*70 FILLER_6_29
*71 FILLER_6_41
*72 FILLER_6_53
*73 FILLER_6_65
*74 FILLER_6_7
*75 FILLER_6_71
*76 FILLER_7_14
*77 FILLER_7_20
*78 FILLER_7_32
*79 FILLER_7_44
*80 FILLER_7_57
*81 FILLER_7_6
*82 FILLER_7_69
*83 FILLER_8_15
*84 FILLER_8_27
*85 FILLER_8_29
*86 FILLER_8_3
*87 FILLER_8_41
*88 FILLER_8_53
*89 FILLER_8_65
*90 FILLER_8_77
*91 FILLER_9_18
*92 FILLER_9_26
*93 FILLER_9_29
*94 FILLER_9_41
*95 FILLER_9_53
*96 FILLER_9_57
*97 FILLER_9_6
*98 FILLER_9_69
*99 PHY_EDGE_ROW_0_Left_10
*100 PHY_EDGE_ROW_0_Right_0
*101 PHY_EDGE_ROW_1_Left_11
*102 PHY_EDGE_ROW_1_Right_1
*103 PHY_EDGE_ROW_2_Left_12
*104 PHY_EDGE_ROW_2_Right_2
*105 PHY_EDGE_ROW_3_Left_13
*106 PHY_EDGE_ROW_3_Right_3
*107 PHY_EDGE_ROW_4_Left_14
*108 PHY_EDGE_ROW_4_Right_4
*109 PHY_EDGE_ROW_5_Left_15
*110 PHY_EDGE_ROW_5_Right_5
*111 PHY_EDGE_ROW_6_Left_16
*112 PHY_EDGE_ROW_6_Right_6
*113 PHY_EDGE_ROW_7_Left_17
*114 PHY_EDGE_ROW_7_Right_7
*115 PHY_EDGE_ROW_8_Left_18
*116 PHY_EDGE_ROW_8_Right_8
*117 PHY_EDGE_ROW_9_Left_19
*118 PHY_EDGE_ROW_9_Right_9
*119 TAP_TAPCELL_ROW_0_20
*120 TAP_TAPCELL_ROW_0_21
*121 TAP_TAPCELL_ROW_1_22
*122 TAP_TAPCELL_ROW_2_23
*123 TAP_TAPCELL_ROW_3_24
*124 TAP_TAPCELL_ROW_4_25
*125 TAP_TAPCELL_ROW_5_26
*126 TAP_TAPCELL_ROW_6_27
*127 TAP_TAPCELL_ROW_7_28
*128 TAP_TAPCELL_ROW_8_29
*129 TAP_TAPCELL_ROW_9_30
*130 TAP_TAPCELL_ROW_9_31
*131 _2_
*132 _3_
*133 _4_
*134 _5_
*135 _6_
*136 _7_
*137 input1
*138 input2
*139 input3
*140 input4
*141 output5
*142 output6
*143 output7
*144 output8

*PORTS
A[0] I
A[1] I
B[0] I
B[1] I
P[0] O
P[1] O
P[2] O
P[3] O

*D_NET *1 0.000666589
*CONN
*P A[0] I
*I *137:A I *D sky130_fd_sc_hd__clkbuf_1
*CAP
1 A[0] 0.000320228
2 *137:A 0
3 *1:17 0.000320228
4 *1:17 *3:17 2.61329e-05
*RES
1 A[0] *1:17 27.1584 
2 *1:17 *137:A 23 
*END

*D_NET *2 0.000737563
*CONN
*P A[1] I
*I *138:A I *D sky130_fd_sc_hd__buf_1
*CAP
1 A[1] 0.000354825
2 *138:A 0.000354825
3 *138:A P[3] 0
4 *138:A *140:A 2.79122e-05
*RES
1 A[1] *138:A 49.5439 
*END

*D_NET *3 0.000747356
*CONN
*P B[0] I
*I *139:A I *D sky130_fd_sc_hd__buf_1
*CAP
1 B[0] 0.000346167
2 *139:A 0
3 *3:17 0.000346167
4 *3:17 P[0] 2.43221e-05
5 *3:17 *5:14 4.56684e-06
6 *3:17 *13:8 0
7 *1:17 *3:17 2.61329e-05
*RES
1 B[0] *3:17 28.2148 
2 *3:17 *139:A 23 
*END

*D_NET *4 0.000618748
*CONN
*P B[1] I
*I *140:A I *D sky130_fd_sc_hd__clkbuf_1
*CAP
1 B[1] 0.000284795
2 *140:A 0.000284795
3 *140:A P[3] 2.12457e-05
4 *138:A *140:A 2.79122e-05
*RES
1 B[1] *140:A 49.8062 
*END

*D_NET *5 0.000763907
*CONN
*P P[0] O
*I *141:X O *D sky130_fd_sc_hd__buf_2
*CAP
1 P[0] 7.58295e-05
2 *141:X 0.000277724
3 *5:14 0.000353553
4 P[0] P[3] 1.5289e-05
5 *5:14 P[3] 1.26232e-05
6 *3:17 P[0] 2.43221e-05
7 *3:17 *5:14 4.56684e-06
*RES
1 *141:X *5:14 49.9 
2 *5:14 P[0] 0.382667 
*END

*D_NET *6 0.000521164
*CONN
*P P[1] O
*I *142:X O *D sky130_fd_sc_hd__buf_2
*CAP
1 P[1] 0.000216894
2 *142:X 0.000216894
3 P[1] P[2] 8.73764e-05
*RES
1 *142:X P[1] 47.1648 
*END

*D_NET *7 0.00061075
*CONN
*P P[2] O
*I *143:X O *D sky130_fd_sc_hd__buf_2
*CAP
1 P[2] 0.000261687
2 *143:X 0.000261687
3 P[1] P[2] 8.73764e-05
*RES
1 *143:X P[2] 47.8691 
*END

*D_NET *8 0.000545574
*CONN
*P P[3] O
*I *144:X O *D sky130_fd_sc_hd__buf_2
*CAP
1 P[3] 0.000243275
2 *144:X 0.000243275
3 P[3] *17:10 9.86551e-06
4 P[0] P[3] 1.5289e-05
5 *138:A P[3] 0
6 *140:A P[3] 2.12457e-05
7 *5:14 P[3] 1.26232e-05
*RES
1 *144:X P[3] 47.1648 
*END

*D_NET *11 0.000731995
*CONN
*I *136:C I *D sky130_fd_sc_hd__and3_1
*I *132:Y O *D sky130_fd_sc_hd__nand2_1
*CAP
1 *136:C 4.34742e-05
2 *132:Y 0.000304566
3 *11:10 0.00034804
4 *136:C *136:B 1.39431e-05
5 *11:10 *132:A 1.73399e-05
6 *11:10 *136:B 0
7 *11:10 *13:18 0
8 *11:10 *16:12 4.6318e-06
*RES
1 *132:Y *11:10 42.6607 
2 *11:10 *136:C 38.7043 
*END

*D_NET *12 0.000500754
*CONN
*I *135:A2 I *D sky130_fd_sc_hd__a21o_1
*I *131:Y O *D sky130_fd_sc_hd__inv_2
*CAP
1 *135:A2 0
2 *131:Y 0.000173074
3 *12:10 0.000173074
4 *12:10 *14:12 5.61207e-05
5 *12:10 *16:8 9.84851e-05
*RES
1 *131:Y *12:10 41.3557 
2 *12:10 *135:A2 38 
*END

*D_NET *13 0.00215796
*CONN
*I *132:B I *D sky130_fd_sc_hd__nand2_1
*I *133:D I *D sky130_fd_sc_hd__and4_1
*I *137:X O *D sky130_fd_sc_hd__clkbuf_1
*CAP
1 *132:B 2.2996e-05
2 *133:D 0
3 *137:X 0.000283538
4 *13:18 0.000115504
5 *13:12 0.000348718
6 *13:8 0.000493756
7 *132:B *132:A 4.34745e-05
8 *13:12 *132:A 5.50106e-05
9 *13:12 *15:8 0.000488055
10 *13:18 *135:A1 3.70187e-05
11 *13:18 *136:B 4.68476e-05
12 *13:18 *15:12 0.000223043
13 *3:17 *13:8 0
14 *11:10 *13:18 0
*RES
1 *137:X *13:8 42.7229 
2 *13:8 *13:12 20.8621 
3 *13:12 *13:18 33.3143 
4 *13:18 *133:D 23 
5 *13:12 *132:B 23.6214 
*END

*D_NET *14 0.0030005
*CONN
*I *131:A I *D sky130_fd_sc_hd__inv_2
*I *133:C I *D sky130_fd_sc_hd__and4_1
*I *136:B I *D sky130_fd_sc_hd__and3_1
*I *138:X O *D sky130_fd_sc_hd__buf_1
*CAP
1 *131:A 0
2 *133:C 4.72972e-05
3 *136:B 0.000290517
4 *138:X 0.00077147
5 *14:12 0.000538475
6 *14:10 0.000972131
7 *133:C *133:B 1.94693e-05
8 *136:B *133:B 6.17437e-06
9 *136:B *135:A1 2.04774e-05
10 *136:B *136:A 1.73399e-05
11 *136:B *16:12 1.83564e-05
12 *14:12 *135:A1 2.11887e-05
13 *14:12 *16:12 0.000160692
14 *14:12 *20:10 0
15 *136:C *136:B 1.39431e-05
16 *11:10 *136:B 0
17 *12:10 *14:12 5.61207e-05
18 *13:18 *136:B 4.68476e-05
*RES
1 *138:X *14:10 49.5379 
2 *14:10 *14:12 5.075 
3 *14:12 *136:B 42.4329 
4 *14:12 *133:C 38.6214 
5 *14:10 *131:A 38 
*END

*D_NET *15 0.00255481
*CONN
*I *132:A I *D sky130_fd_sc_hd__nand2_1
*I *135:A1 I *D sky130_fd_sc_hd__a21o_1
*I *133:B I *D sky130_fd_sc_hd__and4_1
*I *139:X O *D sky130_fd_sc_hd__buf_1
*CAP
1 *132:A 0.000113508
2 *135:A1 0.000134836
3 *133:B 0.000127137
4 *139:X 0.000248334
5 *15:12 0.000402001
6 *15:8 0.000501869
7 *135:A1 *134:A 5.50049e-05
8 *135:A1 *17:10 0
9 *135:A1 *20:10 4.08641e-05
10 *132:B *132:A 4.34745e-05
11 *133:C *133:B 1.94693e-05
12 *136:B *133:B 6.17437e-06
13 *136:B *135:A1 2.04774e-05
14 *11:10 *132:A 1.73399e-05
15 *13:12 *132:A 5.50106e-05
16 *13:12 *15:8 0.000488055
17 *13:18 *135:A1 3.70187e-05
18 *13:18 *15:12 0.000223043
19 *14:12 *135:A1 2.11887e-05
*RES
1 *139:X *15:8 28.8829 
2 *15:8 *15:12 18.3143 
3 *15:12 *133:B 40.0714 
4 *15:12 *135:A1 40.8793 
5 *15:8 *132:A 25.5479 
*END

*D_NET *16 0.00169059
*CONN
*I *136:A I *D sky130_fd_sc_hd__and3_1
*I *133:A I *D sky130_fd_sc_hd__and4_1
*I *140:X O *D sky130_fd_sc_hd__clkbuf_1
*CAP
1 *136:A 3.23287e-05
2 *133:A 0
3 *140:X 0.000448839
4 *16:12 0.000246705
5 *16:8 0.000663215
6 *136:B *136:A 1.73399e-05
7 *136:B *16:12 1.83564e-05
8 *11:10 *16:12 4.6318e-06
9 *12:10 *16:8 9.84851e-05
10 *14:12 *16:12 0.000160692
*RES
1 *140:X *16:8 45.7679 
2 *16:8 *16:12 19.7229 
3 *16:12 *133:A 23 
4 *16:12 *136:A 23.6214 
*END

*D_NET *17 0.000667161
*CONN
*I *141:A I *D sky130_fd_sc_hd__buf_2
*I *135:X O *D sky130_fd_sc_hd__a21o_1
*CAP
1 *141:A 0
2 *135:X 0.000264447
3 *17:10 0.000264447
4 *17:10 *144:A 0.000128401
5 *17:10 *20:10 0
6 P[3] *17:10 9.86551e-06
7 *135:A1 *17:10 0
*RES
1 *135:X *17:10 42.4329 
2 *17:10 *141:A 38 
*END

*D_NET *18 0.000425958
*CONN
*I *142:A I *D sky130_fd_sc_hd__buf_2
*I *134:Y O *D sky130_fd_sc_hd__inv_2
*CAP
1 *142:A 0.000212979
2 *134:Y 0.000212979
*RES
1 *134:Y *142:A 49.9564 
*END

*D_NET *19 0.00354269
*CONN
*I *143:A I *D sky130_fd_sc_hd__buf_2
*I *136:X O *D sky130_fd_sc_hd__and3_1
*CAP
1 *143:A 0
2 *136:X 0.00177135
3 *19:10 0.00177135
*RES
1 *136:X *19:10 48.4371 
2 *19:10 *143:A 23 
*END

*D_NET *20 0.00405148
*CONN
*I *134:A I *D sky130_fd_sc_hd__inv_2
*I *135:B1 I *D sky130_fd_sc_hd__a21o_1
*I *144:A I *D sky130_fd_sc_hd__buf_2
*I *133:X O *D sky130_fd_sc_hd__and4_1
*CAP
1 *134:A 0.0015676
2 *135:B1 0
3 *144:A 0.000137216
4 *133:X 0.000143002
5 *20:16 0.000203007
6 *20:12 0.00163339
7 *20:10 0.000143002
8 *135:A1 *134:A 5.50049e-05
9 *135:A1 *20:10 4.08641e-05
10 *14:12 *20:10 0
11 *17:10 *144:A 0.000128401
12 *17:10 *20:10 0
*RES
1 *133:X *20:10 40.175 
2 *20:10 *20:12 15 
3 *20:12 *20:16 1.11857 
4 *20:16 *144:A 26.48 
5 *20:16 *135:B1 23 
6 *20:12 *134:A 49.5143 
*END
