*SPEF "ieee 1481-1999"
*DESIGN "mult8_2bits_1op_e17503"
*DATE "15:03:10 Tuesday September 16, 2025"
*VENDOR "The OpenROAD Project"
*PROGRAM "OpenROAD"
*VERSION "edf00dff99f6c40d67a30c0e22a8191c5d2ed9d6"
*DESIGN_FLOW "NAME_SCOPE LOCAL" "PIN_CAP NONE"
*DIVIDER /
*DELIMITER :
*BUS_DELIMITER []
*T_UNIT 1 NS
*C_UNIT 1 PF
*R_UNIT 1 OHM
*L_UNIT 1 HENRY

*NAME_MAP
*1 A[0]
*2 A[1]
*3 A[2]
*4 A[3]
*5 A[4]
*6 A[5]
*7 A[6]
*8 A[7]
*9 B[0]
*10 B[1]
*11 B[2]
*12 B[3]
*13 B[4]
*14 B[5]
*15 B[6]
*16 B[7]
*17 P[0]
*18 P[10]
*19 P[11]
*20 P[12]
*21 P[13]
*22 P[14]
*23 P[15]
*24 P[1]
*25 P[2]
*26 P[3]
*27 P[4]
*28 P[5]
*29 P[6]
*30 P[7]
*31 P[8]
*32 P[9]
*35 _000_
*36 _001_
*37 _002_
*38 _003_
*39 _004_
*40 _005_
*41 _006_
*42 _007_
*43 _008_
*44 _009_
*45 _010_
*46 _011_
*47 _012_
*48 _013_
*49 _014_
*50 _015_
*51 _016_
*52 _017_
*53 _018_
*54 _019_
*55 _020_
*56 _021_
*57 _022_
*58 _023_
*59 _024_
*60 _025_
*61 _026_
*62 _027_
*63 _028_
*64 _029_
*65 _030_
*66 _031_
*67 _032_
*68 _033_
*69 _034_
*70 _035_
*71 _036_
*72 _037_
*73 _038_
*74 _039_
*75 _040_
*76 _041_
*77 _042_
*78 _043_
*79 _044_
*80 _045_
*81 _046_
*82 _047_
*83 _048_
*84 _049_
*85 _050_
*86 _051_
*87 _052_
*88 _053_
*89 _054_
*90 _055_
*91 _056_
*92 _057_
*93 _058_
*94 _059_
*95 _060_
*96 _061_
*97 _062_
*98 _063_
*99 _064_
*100 _065_
*101 _066_
*102 _067_
*103 _068_
*104 _069_
*105 _070_
*106 _071_
*107 _072_
*108 _073_
*109 _074_
*110 _075_
*111 _076_
*112 _077_
*113 _078_
*114 _079_
*115 _080_
*116 _081_
*117 _082_
*118 _083_
*119 _084_
*120 _085_
*121 _086_
*122 _087_
*123 _088_
*124 _089_
*125 _090_
*126 _091_
*127 _092_
*128 _093_
*129 _094_
*130 _095_
*131 _096_
*132 _097_
*133 _098_
*134 _099_
*135 _100_
*136 _101_
*137 _102_
*138 _103_
*139 _104_
*140 _105_
*141 _106_
*142 _107_
*143 _108_
*144 _109_
*145 _110_
*146 _111_
*147 _112_
*148 _113_
*149 _114_
*150 _115_
*151 _116_
*152 _117_
*153 _118_
*154 _119_
*155 _120_
*156 _121_
*157 _122_
*158 _123_
*159 _124_
*160 _125_
*161 _126_
*162 _127_
*163 _128_
*164 _129_
*165 _130_
*166 _131_
*167 _132_
*168 _133_
*169 _134_
*170 _135_
*171 _136_
*172 _137_
*173 _138_
*174 _139_
*175 _140_
*176 _141_
*177 _142_
*178 _143_
*179 _144_
*180 _145_
*181 _146_
*182 _147_
*183 _148_
*184 _149_
*185 _150_
*186 _151_
*187 _152_
*188 _153_
*189 _154_
*190 _155_
*191 _156_
*192 _157_
*193 _158_
*194 _159_
*195 _160_
*196 _161_
*197 _162_
*198 _163_
*199 _164_
*200 _165_
*201 _166_
*202 _167_
*203 _168_
*204 _169_
*205 _170_
*206 _171_
*207 _172_
*208 _173_
*209 _174_
*210 _175_
*211 _176_
*212 _177_
*213 _178_
*214 _179_
*215 _180_
*216 _181_
*217 _182_
*218 _183_
*219 _184_
*220 _185_
*221 _186_
*222 _187_
*223 _188_
*224 _189_
*225 _190_
*226 _191_
*227 _192_
*228 _193_
*229 _194_
*230 _195_
*231 _196_
*232 _197_
*233 _198_
*234 _199_
*235 _200_
*236 _201_
*237 _202_
*238 _203_
*239 _204_
*240 _205_
*241 _206_
*242 _207_
*243 _208_
*244 _209_
*245 _210_
*246 _211_
*247 _212_
*248 _213_
*249 _214_
*250 _215_
*251 _216_
*252 _217_
*253 _218_
*254 _219_
*255 _220_
*256 _221_
*257 _222_
*258 _223_
*259 _224_
*260 _225_
*261 _226_
*262 _227_
*263 _228_
*264 _229_
*265 _230_
*266 _231_
*267 _232_
*268 _233_
*269 mul_ll\.mul_ll\.pp1
*270 mul_ll\.mul_ll\.pp2
*271 net1
*272 net10
*273 net11
*274 net12
*275 net13
*276 net14
*277 net15
*278 net16
*279 net17
*280 net18
*281 net19
*282 net2
*283 net20
*284 net21
*285 net22
*286 net23
*287 net24
*288 net25
*289 net26
*290 net27
*291 net28
*292 net29
*293 net3
*294 net30
*295 net31
*296 net32
*297 net33
*298 net34
*299 net35
*300 net36
*301 net37
*302 net38
*303 net39
*304 net4
*305 net40
*306 net41
*307 net42
*308 net43
*309 net44
*310 net45
*311 net46
*312 net47
*313 net48
*314 net49
*315 net5
*316 net50
*317 net51
*318 net52
*319 net53
*320 net54
*321 net55
*322 net56
*323 net57
*324 net58
*325 net59
*326 net6
*327 net60
*328 net61
*329 net62
*330 net63
*331 net64
*332 net65
*333 net66
*334 net67
*335 net68
*336 net69
*337 net7
*338 net70
*339 net73
*340 net8
*341 net9
*342 ANTENNA_1
*343 FILLER_0_105
*344 FILLER_0_111
*345 FILLER_0_113
*346 FILLER_0_119
*347 FILLER_0_127
*348 FILLER_0_133
*349 FILLER_0_141
*350 FILLER_0_15
*351 FILLER_0_153
*352 FILLER_0_169
*353 FILLER_0_175
*354 FILLER_0_190
*355 FILLER_0_197
*356 FILLER_0_202
*357 FILLER_0_214
*358 FILLER_0_222
*359 FILLER_0_225
*360 FILLER_0_237
*361 FILLER_0_245
*362 FILLER_0_253
*363 FILLER_0_265
*364 FILLER_0_27
*365 FILLER_0_277
*366 FILLER_0_281
*367 FILLER_0_289
*368 FILLER_0_29
*369 FILLER_0_294
*370 FILLER_0_3
*371 FILLER_0_306
*372 FILLER_0_309
*373 FILLER_0_321
*374 FILLER_0_333
*375 FILLER_0_337
*376 FILLER_0_349
*377 FILLER_0_361
*378 FILLER_0_365
*379 FILLER_0_377
*380 FILLER_0_389
*381 FILLER_0_393
*382 FILLER_0_405
*383 FILLER_0_41
*384 FILLER_0_53
*385 FILLER_0_57
*386 FILLER_0_69
*387 FILLER_0_81
*388 FILLER_0_85
*389 FILLER_0_97
*390 FILLER_10_109
*391 FILLER_10_121
*392 FILLER_10_133
*393 FILLER_10_139
*394 FILLER_10_141
*395 FILLER_10_15
*396 FILLER_10_153
*397 FILLER_10_162
*398 FILLER_10_174
*399 FILLER_10_182
*400 FILLER_10_192
*401 FILLER_10_197
*402 FILLER_10_209
*403 FILLER_10_221
*404 FILLER_10_233
*405 FILLER_10_245
*406 FILLER_10_251
*407 FILLER_10_253
*408 FILLER_10_265
*409 FILLER_10_27
*410 FILLER_10_277
*411 FILLER_10_289
*412 FILLER_10_29
*413 FILLER_10_3
*414 FILLER_10_301
*415 FILLER_10_307
*416 FILLER_10_309
*417 FILLER_10_321
*418 FILLER_10_333
*419 FILLER_10_345
*420 FILLER_10_357
*421 FILLER_10_363
*422 FILLER_10_365
*423 FILLER_10_377
*424 FILLER_10_389
*425 FILLER_10_401
*426 FILLER_10_41
*427 FILLER_10_53
*428 FILLER_10_65
*429 FILLER_10_77
*430 FILLER_10_83
*431 FILLER_10_85
*432 FILLER_10_97
*433 FILLER_11_105
*434 FILLER_11_111
*435 FILLER_11_113
*436 FILLER_11_125
*437 FILLER_11_137
*438 FILLER_11_149
*439 FILLER_11_15
*440 FILLER_11_169
*441 FILLER_11_182
*442 FILLER_11_192
*443 FILLER_11_215
*444 FILLER_11_223
*445 FILLER_11_225
*446 FILLER_11_237
*447 FILLER_11_249
*448 FILLER_11_261
*449 FILLER_11_27
*450 FILLER_11_273
*451 FILLER_11_279
*452 FILLER_11_281
*453 FILLER_11_293
*454 FILLER_11_3
*455 FILLER_11_305
*456 FILLER_11_317
*457 FILLER_11_329
*458 FILLER_11_335
*459 FILLER_11_337
*460 FILLER_11_349
*461 FILLER_11_361
*462 FILLER_11_373
*463 FILLER_11_385
*464 FILLER_11_39
*465 FILLER_11_391
*466 FILLER_11_393
*467 FILLER_11_405
*468 FILLER_11_51
*469 FILLER_11_55
*470 FILLER_11_57
*471 FILLER_11_69
*472 FILLER_11_81
*473 FILLER_11_93
*474 FILLER_12_109
*475 FILLER_12_121
*476 FILLER_12_133
*477 FILLER_12_139
*478 FILLER_12_141
*479 FILLER_12_15
*480 FILLER_12_153
*481 FILLER_12_165
*482 FILLER_12_177
*483 FILLER_12_207
*484 FILLER_12_219
*485 FILLER_12_225
*486 FILLER_12_247
*487 FILLER_12_251
*488 FILLER_12_253
*489 FILLER_12_265
*490 FILLER_12_27
*491 FILLER_12_277
*492 FILLER_12_289
*493 FILLER_12_29
*494 FILLER_12_3
*495 FILLER_12_301
*496 FILLER_12_307
*497 FILLER_12_309
*498 FILLER_12_321
*499 FILLER_12_333
*500 FILLER_12_345
*501 FILLER_12_357
*502 FILLER_12_363
*503 FILLER_12_365
*504 FILLER_12_377
*505 FILLER_12_389
*506 FILLER_12_401
*507 FILLER_12_41
*508 FILLER_12_53
*509 FILLER_12_65
*510 FILLER_12_77
*511 FILLER_12_83
*512 FILLER_12_85
*513 FILLER_12_97
*514 FILLER_13_105
*515 FILLER_13_111
*516 FILLER_13_113
*517 FILLER_13_125
*518 FILLER_13_137
*519 FILLER_13_149
*520 FILLER_13_15
*521 FILLER_13_161
*522 FILLER_13_167
*523 FILLER_13_169
*524 FILLER_13_181
*525 FILLER_13_196
*526 FILLER_13_206
*527 FILLER_13_218
*528 FILLER_13_225
*529 FILLER_13_237
*530 FILLER_13_249
*531 FILLER_13_261
*532 FILLER_13_27
*533 FILLER_13_273
*534 FILLER_13_279
*535 FILLER_13_281
*536 FILLER_13_293
*537 FILLER_13_3
*538 FILLER_13_305
*539 FILLER_13_317
*540 FILLER_13_329
*541 FILLER_13_335
*542 FILLER_13_337
*543 FILLER_13_349
*544 FILLER_13_361
*545 FILLER_13_373
*546 FILLER_13_385
*547 FILLER_13_39
*548 FILLER_13_391
*549 FILLER_13_393
*550 FILLER_13_405
*551 FILLER_13_51
*552 FILLER_13_55
*553 FILLER_13_57
*554 FILLER_13_69
*555 FILLER_13_81
*556 FILLER_13_93
*557 FILLER_14_109
*558 FILLER_14_121
*559 FILLER_14_129
*560 FILLER_14_15
*561 FILLER_14_161
*562 FILLER_14_173
*563 FILLER_14_184
*564 FILLER_14_190
*565 FILLER_14_194
*566 FILLER_14_197
*567 FILLER_14_203
*568 FILLER_14_215
*569 FILLER_14_242
*570 FILLER_14_248
*571 FILLER_14_266
*572 FILLER_14_27
*573 FILLER_14_278
*574 FILLER_14_284
*575 FILLER_14_29
*576 FILLER_14_296
*577 FILLER_14_3
*578 FILLER_14_309
*579 FILLER_14_321
*580 FILLER_14_333
*581 FILLER_14_345
*582 FILLER_14_357
*583 FILLER_14_363
*584 FILLER_14_365
*585 FILLER_14_377
*586 FILLER_14_389
*587 FILLER_14_401
*588 FILLER_14_41
*589 FILLER_14_53
*590 FILLER_14_65
*591 FILLER_14_77
*592 FILLER_14_83
*593 FILLER_14_85
*594 FILLER_14_97
*595 FILLER_15_108
*596 FILLER_15_113
*597 FILLER_15_124
*598 FILLER_15_136
*599 FILLER_15_148
*600 FILLER_15_15
*601 FILLER_15_160
*602 FILLER_15_169
*603 FILLER_15_181
*604 FILLER_15_193
*605 FILLER_15_205
*606 FILLER_15_217
*607 FILLER_15_223
*608 FILLER_15_225
*609 FILLER_15_237
*610 FILLER_15_254
*611 FILLER_15_266
*612 FILLER_15_27
*613 FILLER_15_278
*614 FILLER_15_293
*615 FILLER_15_3
*616 FILLER_15_305
*617 FILLER_15_317
*618 FILLER_15_329
*619 FILLER_15_335
*620 FILLER_15_337
*621 FILLER_15_349
*622 FILLER_15_361
*623 FILLER_15_373
*624 FILLER_15_385
*625 FILLER_15_39
*626 FILLER_15_391
*627 FILLER_15_393
*628 FILLER_15_405
*629 FILLER_15_51
*630 FILLER_15_55
*631 FILLER_15_57
*632 FILLER_15_69
*633 FILLER_15_81
*634 FILLER_15_93
*635 FILLER_15_97
*636 FILLER_16_103
*637 FILLER_16_111
*638 FILLER_16_123
*639 FILLER_16_135
*640 FILLER_16_139
*641 FILLER_16_141
*642 FILLER_16_15
*643 FILLER_16_151
*644 FILLER_16_163
*645 FILLER_16_167
*646 FILLER_16_171
*647 FILLER_16_183
*648 FILLER_16_195
*649 FILLER_16_197
*650 FILLER_16_209
*651 FILLER_16_221
*652 FILLER_16_233
*653 FILLER_16_245
*654 FILLER_16_251
*655 FILLER_16_253
*656 FILLER_16_265
*657 FILLER_16_27
*658 FILLER_16_277
*659 FILLER_16_289
*660 FILLER_16_29
*661 FILLER_16_3
*662 FILLER_16_301
*663 FILLER_16_307
*664 FILLER_16_309
*665 FILLER_16_321
*666 FILLER_16_333
*667 FILLER_16_345
*668 FILLER_16_357
*669 FILLER_16_363
*670 FILLER_16_365
*671 FILLER_16_377
*672 FILLER_16_389
*673 FILLER_16_401
*674 FILLER_16_41
*675 FILLER_16_53
*676 FILLER_16_65
*677 FILLER_16_77
*678 FILLER_16_83
*679 FILLER_16_85
*680 FILLER_16_93
*681 FILLER_17_106
*682 FILLER_17_113
*683 FILLER_17_125
*684 FILLER_17_137
*685 FILLER_17_145
*686 FILLER_17_15
*687 FILLER_17_151
*688 FILLER_17_163
*689 FILLER_17_167
*690 FILLER_17_169
*691 FILLER_17_181
*692 FILLER_17_193
*693 FILLER_17_205
*694 FILLER_17_217
*695 FILLER_17_223
*696 FILLER_17_225
*697 FILLER_17_237
*698 FILLER_17_249
*699 FILLER_17_261
*700 FILLER_17_27
*701 FILLER_17_273
*702 FILLER_17_279
*703 FILLER_17_281
*704 FILLER_17_293
*705 FILLER_17_3
*706 FILLER_17_301
*707 FILLER_17_315
*708 FILLER_17_327
*709 FILLER_17_335
*710 FILLER_17_337
*711 FILLER_17_349
*712 FILLER_17_361
*713 FILLER_17_373
*714 FILLER_17_385
*715 FILLER_17_39
*716 FILLER_17_391
*717 FILLER_17_393
*718 FILLER_17_401
*719 FILLER_17_51
*720 FILLER_17_55
*721 FILLER_17_57
*722 FILLER_17_69
*723 FILLER_17_81
*724 FILLER_17_93
*725 FILLER_18_106
*726 FILLER_18_118
*727 FILLER_18_130
*728 FILLER_18_138
*729 FILLER_18_15
*730 FILLER_18_163
*731 FILLER_18_175
*732 FILLER_18_187
*733 FILLER_18_195
*734 FILLER_18_197
*735 FILLER_18_209
*736 FILLER_18_221
*737 FILLER_18_248
*738 FILLER_18_253
*739 FILLER_18_265
*740 FILLER_18_27
*741 FILLER_18_272
*742 FILLER_18_282
*743 FILLER_18_29
*744 FILLER_18_3
*745 FILLER_18_303
*746 FILLER_18_307
*747 FILLER_18_315
*748 FILLER_18_327
*749 FILLER_18_339
*750 FILLER_18_351
*751 FILLER_18_363
*752 FILLER_18_365
*753 FILLER_18_377
*754 FILLER_18_389
*755 FILLER_18_401
*756 FILLER_18_41
*757 FILLER_18_53
*758 FILLER_18_65
*759 FILLER_18_77
*760 FILLER_18_83
*761 FILLER_18_85
*762 FILLER_18_93
*763 FILLER_19_110
*764 FILLER_19_123
*765 FILLER_19_135
*766 FILLER_19_139
*767 FILLER_19_145
*768 FILLER_19_15
*769 FILLER_19_153
*770 FILLER_19_162
*771 FILLER_19_169
*772 FILLER_19_181
*773 FILLER_19_193
*774 FILLER_19_205
*775 FILLER_19_213
*776 FILLER_19_221
*777 FILLER_19_230
*778 FILLER_19_242
*779 FILLER_19_254
*780 FILLER_19_262
*781 FILLER_19_269
*782 FILLER_19_27
*783 FILLER_19_277
*784 FILLER_19_281
*785 FILLER_19_293
*786 FILLER_19_3
*787 FILLER_19_301
*788 FILLER_19_313
*789 FILLER_19_325
*790 FILLER_19_333
*791 FILLER_19_337
*792 FILLER_19_349
*793 FILLER_19_361
*794 FILLER_19_373
*795 FILLER_19_385
*796 FILLER_19_39
*797 FILLER_19_391
*798 FILLER_19_393
*799 FILLER_19_401
*800 FILLER_19_51
*801 FILLER_19_55
*802 FILLER_19_57
*803 FILLER_19_69
*804 FILLER_19_81
*805 FILLER_19_93
*806 FILLER_1_105
*807 FILLER_1_111
*808 FILLER_1_113
*809 FILLER_1_125
*810 FILLER_1_137
*811 FILLER_1_149
*812 FILLER_1_15
*813 FILLER_1_161
*814 FILLER_1_167
*815 FILLER_1_169
*816 FILLER_1_181
*817 FILLER_1_185
*818 FILLER_1_195
*819 FILLER_1_207
*820 FILLER_1_219
*821 FILLER_1_223
*822 FILLER_1_225
*823 FILLER_1_237
*824 FILLER_1_249
*825 FILLER_1_261
*826 FILLER_1_27
*827 FILLER_1_273
*828 FILLER_1_279
*829 FILLER_1_281
*830 FILLER_1_293
*831 FILLER_1_3
*832 FILLER_1_305
*833 FILLER_1_317
*834 FILLER_1_329
*835 FILLER_1_335
*836 FILLER_1_337
*837 FILLER_1_349
*838 FILLER_1_361
*839 FILLER_1_373
*840 FILLER_1_385
*841 FILLER_1_39
*842 FILLER_1_391
*843 FILLER_1_393
*844 FILLER_1_405
*845 FILLER_1_51
*846 FILLER_1_55
*847 FILLER_1_57
*848 FILLER_1_69
*849 FILLER_1_81
*850 FILLER_1_93
*851 FILLER_20_123
*852 FILLER_20_135
*853 FILLER_20_139
*854 FILLER_20_141
*855 FILLER_20_15
*856 FILLER_20_153
*857 FILLER_20_166
*858 FILLER_20_170
*859 FILLER_20_180
*860 FILLER_20_188
*861 FILLER_20_192
*862 FILLER_20_197
*863 FILLER_20_209
*864 FILLER_20_221
*865 FILLER_20_233
*866 FILLER_20_245
*867 FILLER_20_251
*868 FILLER_20_253
*869 FILLER_20_265
*870 FILLER_20_27
*871 FILLER_20_277
*872 FILLER_20_289
*873 FILLER_20_29
*874 FILLER_20_3
*875 FILLER_20_301
*876 FILLER_20_307
*877 FILLER_20_309
*878 FILLER_20_321
*879 FILLER_20_333
*880 FILLER_20_345
*881 FILLER_20_357
*882 FILLER_20_363
*883 FILLER_20_365
*884 FILLER_20_377
*885 FILLER_20_389
*886 FILLER_20_401
*887 FILLER_20_41
*888 FILLER_20_53
*889 FILLER_20_65
*890 FILLER_20_77
*891 FILLER_20_83
*892 FILLER_20_85
*893 FILLER_21_103
*894 FILLER_21_113
*895 FILLER_21_125
*896 FILLER_21_137
*897 FILLER_21_149
*898 FILLER_21_15
*899 FILLER_21_158
*900 FILLER_21_166
*901 FILLER_21_169
*902 FILLER_21_181
*903 FILLER_21_187
*904 FILLER_21_201
*905 FILLER_21_213
*906 FILLER_21_221
*907 FILLER_21_225
*908 FILLER_21_237
*909 FILLER_21_243
*910 FILLER_21_259
*911 FILLER_21_266
*912 FILLER_21_27
*913 FILLER_21_278
*914 FILLER_21_281
*915 FILLER_21_293
*916 FILLER_21_3
*917 FILLER_21_305
*918 FILLER_21_317
*919 FILLER_21_329
*920 FILLER_21_335
*921 FILLER_21_337
*922 FILLER_21_349
*923 FILLER_21_361
*924 FILLER_21_373
*925 FILLER_21_385
*926 FILLER_21_39
*927 FILLER_21_391
*928 FILLER_21_393
*929 FILLER_21_51
*930 FILLER_21_55
*931 FILLER_21_57
*932 FILLER_21_69
*933 FILLER_21_81
*934 FILLER_21_93
*935 FILLER_22_109
*936 FILLER_22_121
*937 FILLER_22_133
*938 FILLER_22_139
*939 FILLER_22_141
*940 FILLER_22_15
*941 FILLER_22_155
*942 FILLER_22_167
*943 FILLER_22_179
*944 FILLER_22_191
*945 FILLER_22_195
*946 FILLER_22_197
*947 FILLER_22_209
*948 FILLER_22_221
*949 FILLER_22_233
*950 FILLER_22_245
*951 FILLER_22_251
*952 FILLER_22_253
*953 FILLER_22_261
*954 FILLER_22_27
*955 FILLER_22_270
*956 FILLER_22_282
*957 FILLER_22_29
*958 FILLER_22_294
*959 FILLER_22_3
*960 FILLER_22_306
*961 FILLER_22_309
*962 FILLER_22_321
*963 FILLER_22_333
*964 FILLER_22_345
*965 FILLER_22_357
*966 FILLER_22_363
*967 FILLER_22_365
*968 FILLER_22_377
*969 FILLER_22_389
*970 FILLER_22_401
*971 FILLER_22_41
*972 FILLER_22_53
*973 FILLER_22_65
*974 FILLER_22_77
*975 FILLER_22_83
*976 FILLER_22_85
*977 FILLER_22_97
*978 FILLER_23_105
*979 FILLER_23_111
*980 FILLER_23_122
*981 FILLER_23_134
*982 FILLER_23_146
*983 FILLER_23_15
*984 FILLER_23_158
*985 FILLER_23_166
*986 FILLER_23_169
*987 FILLER_23_181
*988 FILLER_23_193
*989 FILLER_23_204
*990 FILLER_23_216
*991 FILLER_23_228
*992 FILLER_23_240
*993 FILLER_23_252
*994 FILLER_23_264
*995 FILLER_23_27
*996 FILLER_23_276
*997 FILLER_23_281
*998 FILLER_23_293
*999 FILLER_23_3
*1000 FILLER_23_305
*1001 FILLER_23_317
*1002 FILLER_23_329
*1003 FILLER_23_335
*1004 FILLER_23_337
*1005 FILLER_23_349
*1006 FILLER_23_361
*1007 FILLER_23_373
*1008 FILLER_23_385
*1009 FILLER_23_39
*1010 FILLER_23_391
*1011 FILLER_23_393
*1012 FILLER_23_405
*1013 FILLER_23_51
*1014 FILLER_23_55
*1015 FILLER_23_57
*1016 FILLER_23_69
*1017 FILLER_23_81
*1018 FILLER_23_93
*1019 FILLER_24_109
*1020 FILLER_24_121
*1021 FILLER_24_133
*1022 FILLER_24_139
*1023 FILLER_24_141
*1024 FILLER_24_149
*1025 FILLER_24_15
*1026 FILLER_24_158
*1027 FILLER_24_170
*1028 FILLER_24_182
*1029 FILLER_24_190
*1030 FILLER_24_207
*1031 FILLER_24_216
*1032 FILLER_24_228
*1033 FILLER_24_240
*1034 FILLER_24_253
*1035 FILLER_24_265
*1036 FILLER_24_27
*1037 FILLER_24_29
*1038 FILLER_24_3
*1039 FILLER_24_300
*1040 FILLER_24_309
*1041 FILLER_24_321
*1042 FILLER_24_333
*1043 FILLER_24_345
*1044 FILLER_24_357
*1045 FILLER_24_363
*1046 FILLER_24_365
*1047 FILLER_24_377
*1048 FILLER_24_389
*1049 FILLER_24_401
*1050 FILLER_24_41
*1051 FILLER_24_53
*1052 FILLER_24_65
*1053 FILLER_24_77
*1054 FILLER_24_83
*1055 FILLER_24_85
*1056 FILLER_24_97
*1057 FILLER_25_105
*1058 FILLER_25_111
*1059 FILLER_25_113
*1060 FILLER_25_125
*1061 FILLER_25_137
*1062 FILLER_25_149
*1063 FILLER_25_15
*1064 FILLER_25_161
*1065 FILLER_25_167
*1066 FILLER_25_169
*1067 FILLER_25_181
*1068 FILLER_25_194
*1069 FILLER_25_206
*1070 FILLER_25_218
*1071 FILLER_25_225
*1072 FILLER_25_237
*1073 FILLER_25_249
*1074 FILLER_25_259
*1075 FILLER_25_27
*1076 FILLER_25_271
*1077 FILLER_25_279
*1078 FILLER_25_281
*1079 FILLER_25_289
*1080 FILLER_25_296
*1081 FILLER_25_3
*1082 FILLER_25_308
*1083 FILLER_25_320
*1084 FILLER_25_332
*1085 FILLER_25_337
*1086 FILLER_25_349
*1087 FILLER_25_361
*1088 FILLER_25_373
*1089 FILLER_25_385
*1090 FILLER_25_39
*1091 FILLER_25_391
*1092 FILLER_25_393
*1093 FILLER_25_405
*1094 FILLER_25_51
*1095 FILLER_25_55
*1096 FILLER_25_57
*1097 FILLER_25_69
*1098 FILLER_25_81
*1099 FILLER_25_93
*1100 FILLER_26_109
*1101 FILLER_26_119
*1102 FILLER_26_131
*1103 FILLER_26_139
*1104 FILLER_26_141
*1105 FILLER_26_15
*1106 FILLER_26_153
*1107 FILLER_26_165
*1108 FILLER_26_177
*1109 FILLER_26_195
*1110 FILLER_26_200
*1111 FILLER_26_212
*1112 FILLER_26_224
*1113 FILLER_26_236
*1114 FILLER_26_244
*1115 FILLER_26_253
*1116 FILLER_26_257
*1117 FILLER_26_27
*1118 FILLER_26_276
*1119 FILLER_26_288
*1120 FILLER_26_29
*1121 FILLER_26_3
*1122 FILLER_26_300
*1123 FILLER_26_309
*1124 FILLER_26_321
*1125 FILLER_26_333
*1126 FILLER_26_345
*1127 FILLER_26_357
*1128 FILLER_26_363
*1129 FILLER_26_365
*1130 FILLER_26_377
*1131 FILLER_26_389
*1132 FILLER_26_401
*1133 FILLER_26_41
*1134 FILLER_26_53
*1135 FILLER_26_65
*1136 FILLER_26_77
*1137 FILLER_26_83
*1138 FILLER_26_85
*1139 FILLER_26_97
*1140 FILLER_27_105
*1141 FILLER_27_111
*1142 FILLER_27_113
*1143 FILLER_27_133
*1144 FILLER_27_145
*1145 FILLER_27_15
*1146 FILLER_27_157
*1147 FILLER_27_165
*1148 FILLER_27_169
*1149 FILLER_27_181
*1150 FILLER_27_193
*1151 FILLER_27_219
*1152 FILLER_27_223
*1153 FILLER_27_225
*1154 FILLER_27_237
*1155 FILLER_27_249
*1156 FILLER_27_261
*1157 FILLER_27_269
*1158 FILLER_27_27
*1159 FILLER_27_279
*1160 FILLER_27_281
*1161 FILLER_27_291
*1162 FILLER_27_3
*1163 FILLER_27_303
*1164 FILLER_27_315
*1165 FILLER_27_327
*1166 FILLER_27_335
*1167 FILLER_27_337
*1168 FILLER_27_349
*1169 FILLER_27_361
*1170 FILLER_27_373
*1171 FILLER_27_385
*1172 FILLER_27_39
*1173 FILLER_27_391
*1174 FILLER_27_393
*1175 FILLER_27_405
*1176 FILLER_27_51
*1177 FILLER_27_55
*1178 FILLER_27_57
*1179 FILLER_27_69
*1180 FILLER_27_81
*1181 FILLER_27_93
*1182 FILLER_28_109
*1183 FILLER_28_121
*1184 FILLER_28_133
*1185 FILLER_28_139
*1186 FILLER_28_141
*1187 FILLER_28_15
*1188 FILLER_28_154
*1189 FILLER_28_172
*1190 FILLER_28_178
*1191 FILLER_28_184
*1192 FILLER_28_197
*1193 FILLER_28_205
*1194 FILLER_28_224
*1195 FILLER_28_236
*1196 FILLER_28_248
*1197 FILLER_28_253
*1198 FILLER_28_265
*1199 FILLER_28_27
*1200 FILLER_28_277
*1201 FILLER_28_284
*1202 FILLER_28_29
*1203 FILLER_28_3
*1204 FILLER_28_305
*1205 FILLER_28_309
*1206 FILLER_28_321
*1207 FILLER_28_333
*1208 FILLER_28_345
*1209 FILLER_28_357
*1210 FILLER_28_363
*1211 FILLER_28_365
*1212 FILLER_28_377
*1213 FILLER_28_389
*1214 FILLER_28_401
*1215 FILLER_28_41
*1216 FILLER_28_53
*1217 FILLER_28_65
*1218 FILLER_28_77
*1219 FILLER_28_83
*1220 FILLER_28_85
*1221 FILLER_28_97
*1222 FILLER_29_105
*1223 FILLER_29_111
*1224 FILLER_29_113
*1225 FILLER_29_125
*1226 FILLER_29_137
*1227 FILLER_29_149
*1228 FILLER_29_15
*1229 FILLER_29_161
*1230 FILLER_29_169
*1231 FILLER_29_183
*1232 FILLER_29_195
*1233 FILLER_29_216
*1234 FILLER_29_229
*1235 FILLER_29_237
*1236 FILLER_29_242
*1237 FILLER_29_254
*1238 FILLER_29_266
*1239 FILLER_29_27
*1240 FILLER_29_278
*1241 FILLER_29_281
*1242 FILLER_29_293
*1243 FILLER_29_3
*1244 FILLER_29_305
*1245 FILLER_29_317
*1246 FILLER_29_329
*1247 FILLER_29_335
*1248 FILLER_29_337
*1249 FILLER_29_349
*1250 FILLER_29_361
*1251 FILLER_29_373
*1252 FILLER_29_385
*1253 FILLER_29_39
*1254 FILLER_29_391
*1255 FILLER_29_393
*1256 FILLER_29_405
*1257 FILLER_29_51
*1258 FILLER_29_55
*1259 FILLER_29_57
*1260 FILLER_29_69
*1261 FILLER_29_81
*1262 FILLER_29_93
*1263 FILLER_2_109
*1264 FILLER_2_121
*1265 FILLER_2_129
*1266 FILLER_2_138
*1267 FILLER_2_141
*1268 FILLER_2_15
*1269 FILLER_2_153
*1270 FILLER_2_164
*1271 FILLER_2_168
*1272 FILLER_2_172
*1273 FILLER_2_194
*1274 FILLER_2_204
*1275 FILLER_2_219
*1276 FILLER_2_231
*1277 FILLER_2_240
*1278 FILLER_2_253
*1279 FILLER_2_265
*1280 FILLER_2_27
*1281 FILLER_2_277
*1282 FILLER_2_289
*1283 FILLER_2_29
*1284 FILLER_2_3
*1285 FILLER_2_301
*1286 FILLER_2_307
*1287 FILLER_2_309
*1288 FILLER_2_321
*1289 FILLER_2_333
*1290 FILLER_2_345
*1291 FILLER_2_357
*1292 FILLER_2_363
*1293 FILLER_2_365
*1294 FILLER_2_377
*1295 FILLER_2_389
*1296 FILLER_2_401
*1297 FILLER_2_41
*1298 FILLER_2_53
*1299 FILLER_2_65
*1300 FILLER_2_77
*1301 FILLER_2_83
*1302 FILLER_2_85
*1303 FILLER_2_97
*1304 FILLER_30_109
*1305 FILLER_30_121
*1306 FILLER_30_138
*1307 FILLER_30_146
*1308 FILLER_30_15
*1309 FILLER_30_158
*1310 FILLER_30_171
*1311 FILLER_30_183
*1312 FILLER_30_195
*1313 FILLER_30_197
*1314 FILLER_30_209
*1315 FILLER_30_221
*1316 FILLER_30_225
*1317 FILLER_30_231
*1318 FILLER_30_243
*1319 FILLER_30_251
*1320 FILLER_30_253
*1321 FILLER_30_265
*1322 FILLER_30_27
*1323 FILLER_30_277
*1324 FILLER_30_289
*1325 FILLER_30_29
*1326 FILLER_30_3
*1327 FILLER_30_301
*1328 FILLER_30_307
*1329 FILLER_30_309
*1330 FILLER_30_321
*1331 FILLER_30_333
*1332 FILLER_30_345
*1333 FILLER_30_357
*1334 FILLER_30_363
*1335 FILLER_30_365
*1336 FILLER_30_377
*1337 FILLER_30_389
*1338 FILLER_30_401
*1339 FILLER_30_41
*1340 FILLER_30_53
*1341 FILLER_30_65
*1342 FILLER_30_77
*1343 FILLER_30_83
*1344 FILLER_30_85
*1345 FILLER_30_97
*1346 FILLER_31_102
*1347 FILLER_31_110
*1348 FILLER_31_113
*1349 FILLER_31_125
*1350 FILLER_31_137
*1351 FILLER_31_149
*1352 FILLER_31_15
*1353 FILLER_31_161
*1354 FILLER_31_167
*1355 FILLER_31_169
*1356 FILLER_31_181
*1357 FILLER_31_193
*1358 FILLER_31_205
*1359 FILLER_31_217
*1360 FILLER_31_223
*1361 FILLER_31_225
*1362 FILLER_31_237
*1363 FILLER_31_247
*1364 FILLER_31_259
*1365 FILLER_31_27
*1366 FILLER_31_271
*1367 FILLER_31_279
*1368 FILLER_31_281
*1369 FILLER_31_293
*1370 FILLER_31_3
*1371 FILLER_31_305
*1372 FILLER_31_317
*1373 FILLER_31_329
*1374 FILLER_31_335
*1375 FILLER_31_337
*1376 FILLER_31_349
*1377 FILLER_31_361
*1378 FILLER_31_373
*1379 FILLER_31_385
*1380 FILLER_31_39
*1381 FILLER_31_391
*1382 FILLER_31_393
*1383 FILLER_31_397
*1384 FILLER_31_51
*1385 FILLER_31_55
*1386 FILLER_31_57
*1387 FILLER_31_69
*1388 FILLER_31_77
*1389 FILLER_31_90
*1390 FILLER_32_106
*1391 FILLER_32_11
*1392 FILLER_32_118
*1393 FILLER_32_130
*1394 FILLER_32_138
*1395 FILLER_32_148
*1396 FILLER_32_160
*1397 FILLER_32_172
*1398 FILLER_32_184
*1399 FILLER_32_197
*1400 FILLER_32_21
*1401 FILLER_32_232
*1402 FILLER_32_244
*1403 FILLER_32_253
*1404 FILLER_32_265
*1405 FILLER_32_27
*1406 FILLER_32_277
*1407 FILLER_32_289
*1408 FILLER_32_29
*1409 FILLER_32_3
*1410 FILLER_32_301
*1411 FILLER_32_307
*1412 FILLER_32_309
*1413 FILLER_32_321
*1414 FILLER_32_33
*1415 FILLER_32_333
*1416 FILLER_32_345
*1417 FILLER_32_357
*1418 FILLER_32_363
*1419 FILLER_32_365
*1420 FILLER_32_377
*1421 FILLER_32_389
*1422 FILLER_32_401
*1423 FILLER_32_41
*1424 FILLER_32_53
*1425 FILLER_32_65
*1426 FILLER_32_77
*1427 FILLER_32_83
*1428 FILLER_32_85
*1429 FILLER_32_94
*1430 FILLER_33_111
*1431 FILLER_33_113
*1432 FILLER_33_125
*1433 FILLER_33_132
*1434 FILLER_33_141
*1435 FILLER_33_15
*1436 FILLER_33_153
*1437 FILLER_33_165
*1438 FILLER_33_169
*1439 FILLER_33_181
*1440 FILLER_33_193
*1441 FILLER_33_205
*1442 FILLER_33_217
*1443 FILLER_33_223
*1444 FILLER_33_225
*1445 FILLER_33_237
*1446 FILLER_33_249
*1447 FILLER_33_263
*1448 FILLER_33_27
*1449 FILLER_33_278
*1450 FILLER_33_281
*1451 FILLER_33_293
*1452 FILLER_33_3
*1453 FILLER_33_305
*1454 FILLER_33_317
*1455 FILLER_33_329
*1456 FILLER_33_335
*1457 FILLER_33_337
*1458 FILLER_33_349
*1459 FILLER_33_361
*1460 FILLER_33_373
*1461 FILLER_33_385
*1462 FILLER_33_39
*1463 FILLER_33_391
*1464 FILLER_33_393
*1465 FILLER_33_405
*1466 FILLER_33_60
*1467 FILLER_33_72
*1468 FILLER_33_84
*1469 FILLER_33_92
*1470 FILLER_33_99
*1471 FILLER_34_11
*1472 FILLER_34_110
*1473 FILLER_34_122
*1474 FILLER_34_134
*1475 FILLER_34_141
*1476 FILLER_34_153
*1477 FILLER_34_157
*1478 FILLER_34_165
*1479 FILLER_34_177
*1480 FILLER_34_189
*1481 FILLER_34_195
*1482 FILLER_34_197
*1483 FILLER_34_209
*1484 FILLER_34_221
*1485 FILLER_34_233
*1486 FILLER_34_245
*1487 FILLER_34_251
*1488 FILLER_34_253
*1489 FILLER_34_261
*1490 FILLER_34_267
*1491 FILLER_34_27
*1492 FILLER_34_275
*1493 FILLER_34_287
*1494 FILLER_34_29
*1495 FILLER_34_299
*1496 FILLER_34_3
*1497 FILLER_34_307
*1498 FILLER_34_309
*1499 FILLER_34_321
*1500 FILLER_34_333
*1501 FILLER_34_345
*1502 FILLER_34_357
*1503 FILLER_34_363
*1504 FILLER_34_365
*1505 FILLER_34_377
*1506 FILLER_34_389
*1507 FILLER_34_401
*1508 FILLER_34_45
*1509 FILLER_34_57
*1510 FILLER_34_69
*1511 FILLER_34_81
*1512 FILLER_34_85
*1513 FILLER_34_98
*1514 FILLER_35_108
*1515 FILLER_35_113
*1516 FILLER_35_125
*1517 FILLER_35_137
*1518 FILLER_35_166
*1519 FILLER_35_169
*1520 FILLER_35_180
*1521 FILLER_35_188
*1522 FILLER_35_19
*1523 FILLER_35_203
*1524 FILLER_35_215
*1525 FILLER_35_223
*1526 FILLER_35_225
*1527 FILLER_35_237
*1528 FILLER_35_249
*1529 FILLER_35_25
*1530 FILLER_35_261
*1531 FILLER_35_265
*1532 FILLER_35_275
*1533 FILLER_35_279
*1534 FILLER_35_281
*1535 FILLER_35_293
*1536 FILLER_35_305
*1537 FILLER_35_317
*1538 FILLER_35_329
*1539 FILLER_35_335
*1540 FILLER_35_337
*1541 FILLER_35_34
*1542 FILLER_35_349
*1543 FILLER_35_361
*1544 FILLER_35_373
*1545 FILLER_35_385
*1546 FILLER_35_391
*1547 FILLER_35_393
*1548 FILLER_35_405
*1549 FILLER_35_46
*1550 FILLER_35_54
*1551 FILLER_35_57
*1552 FILLER_35_69
*1553 FILLER_35_7
*1554 FILLER_35_75
*1555 FILLER_35_84
*1556 FILLER_35_96
*1557 FILLER_36_103
*1558 FILLER_36_115
*1559 FILLER_36_137
*1560 FILLER_36_141
*1561 FILLER_36_153
*1562 FILLER_36_165
*1563 FILLER_36_177
*1564 FILLER_36_189
*1565 FILLER_36_19
*1566 FILLER_36_195
*1567 FILLER_36_197
*1568 FILLER_36_209
*1569 FILLER_36_221
*1570 FILLER_36_233
*1571 FILLER_36_245
*1572 FILLER_36_251
*1573 FILLER_36_253
*1574 FILLER_36_265
*1575 FILLER_36_277
*1576 FILLER_36_289
*1577 FILLER_36_301
*1578 FILLER_36_307
*1579 FILLER_36_309
*1580 FILLER_36_321
*1581 FILLER_36_333
*1582 FILLER_36_345
*1583 FILLER_36_357
*1584 FILLER_36_363
*1585 FILLER_36_365
*1586 FILLER_36_377
*1587 FILLER_36_38
*1588 FILLER_36_389
*1589 FILLER_36_401
*1590 FILLER_36_50
*1591 FILLER_36_62
*1592 FILLER_36_7
*1593 FILLER_36_74
*1594 FILLER_36_91
*1595 FILLER_37_102
*1596 FILLER_37_110
*1597 FILLER_37_113
*1598 FILLER_37_125
*1599 FILLER_37_137
*1600 FILLER_37_15
*1601 FILLER_37_153
*1602 FILLER_37_165
*1603 FILLER_37_169
*1604 FILLER_37_181
*1605 FILLER_37_193
*1606 FILLER_37_205
*1607 FILLER_37_217
*1608 FILLER_37_223
*1609 FILLER_37_225
*1610 FILLER_37_237
*1611 FILLER_37_249
*1612 FILLER_37_261
*1613 FILLER_37_269
*1614 FILLER_37_27
*1615 FILLER_37_277
*1616 FILLER_37_281
*1617 FILLER_37_293
*1618 FILLER_37_3
*1619 FILLER_37_305
*1620 FILLER_37_317
*1621 FILLER_37_329
*1622 FILLER_37_335
*1623 FILLER_37_337
*1624 FILLER_37_349
*1625 FILLER_37_361
*1626 FILLER_37_373
*1627 FILLER_37_385
*1628 FILLER_37_39
*1629 FILLER_37_391
*1630 FILLER_37_393
*1631 FILLER_37_405
*1632 FILLER_37_51
*1633 FILLER_37_55
*1634 FILLER_37_66
*1635 FILLER_37_78
*1636 FILLER_37_82
*1637 FILLER_37_86
*1638 FILLER_37_98
*1639 FILLER_38_109
*1640 FILLER_38_121
*1641 FILLER_38_133
*1642 FILLER_38_139
*1643 FILLER_38_141
*1644 FILLER_38_153
*1645 FILLER_38_165
*1646 FILLER_38_177
*1647 FILLER_38_189
*1648 FILLER_38_195
*1649 FILLER_38_197
*1650 FILLER_38_20
*1651 FILLER_38_244
*1652 FILLER_38_253
*1653 FILLER_38_265
*1654 FILLER_38_277
*1655 FILLER_38_289
*1656 FILLER_38_29
*1657 FILLER_38_3
*1658 FILLER_38_301
*1659 FILLER_38_307
*1660 FILLER_38_309
*1661 FILLER_38_321
*1662 FILLER_38_333
*1663 FILLER_38_345
*1664 FILLER_38_357
*1665 FILLER_38_363
*1666 FILLER_38_365
*1667 FILLER_38_377
*1668 FILLER_38_389
*1669 FILLER_38_401
*1670 FILLER_38_41
*1671 FILLER_38_53
*1672 FILLER_38_65
*1673 FILLER_38_77
*1674 FILLER_38_83
*1675 FILLER_38_85
*1676 FILLER_38_97
*1677 FILLER_39_108
*1678 FILLER_39_113
*1679 FILLER_39_125
*1680 FILLER_39_137
*1681 FILLER_39_149
*1682 FILLER_39_15
*1683 FILLER_39_161
*1684 FILLER_39_167
*1685 FILLER_39_169
*1686 FILLER_39_181
*1687 FILLER_39_193
*1688 FILLER_39_20
*1689 FILLER_39_205
*1690 FILLER_39_217
*1691 FILLER_39_223
*1692 FILLER_39_225
*1693 FILLER_39_237
*1694 FILLER_39_249
*1695 FILLER_39_261
*1696 FILLER_39_273
*1697 FILLER_39_279
*1698 FILLER_39_294
*1699 FILLER_39_3
*1700 FILLER_39_306