*SPEF "ieee 1481-1999"
*DESIGN "mult4_SARSA_RUIDO_e9_SarsaNada_e6_SARSA_RUIDO_e9_SARSA_RUIDO_e9"
*DATE "18:41:35 Tuesday September 16, 2025"
*VENDOR "The OpenROAD Project"
*PROGRAM "OpenROAD"
*VERSION "edf00dff99f6c40d67a30c0e22a8191c5d2ed9d6"
*DESIGN_FLOW "NAME_SCOPE LOCAL" "PIN_CAP NONE"
*DIVIDER /
*DELIMITER :
*BUS_DELIMITER []
*T_UNIT 1 NS
*C_UNIT 1 PF
*R_UNIT 1 OHM
*L_UNIT 1 HENRY

*NAME_MAP
*1 A[0]
*2 A[1]
*3 A[2]
*4 A[3]
*5 B[0]
*6 B[1]
*7 B[2]
*8 B[3]
*9 P[0]
*10 P[1]
*11 P[2]
*12 P[3]
*13 P[4]
*14 P[5]
*15 P[6]
*16 P[7]
*19 _000_
*20 _001_
*21 _002_
*22 _003_
*23 _004_
*24 _005_
*25 _006_
*26 _007_
*27 _008_
*28 _009_
*29 _010_
*30 _011_
*31 _012_
*32 _013_
*33 _014_
*34 _015_
*35 _016_
*36 _017_
*37 _018_
*38 _019_
*39 _020_
*40 _021_
*41 _022_
*42 _023_
*43 _024_
*44 _025_
*45 _026_
*46 _027_
*47 _028_
*48 _029_
*49 _030_
*50 _031_
*51 _032_
*52 _033_
*53 _034_
*54 _035_
*55 _036_
*56 _037_
*57 _038_
*58 _039_
*59 _040_
*60 _041_
*61 _042_
*62 _043_
*63 _044_
*64 _045_
*65 _046_
*66 _047_
*67 _048_
*68 net1
*69 net10
*70 net11
*71 net12
*72 net13
*73 net14
*74 net15
*75 net16
*76 net2
*77 net3
*78 net4
*79 net5
*80 net6
*81 net7
*82 net8
*83 net9
*84 FILLER_0_15
*85 FILLER_0_21
*86 FILLER_0_29
*87 FILLER_0_3
*88 FILLER_0_41
*89 FILLER_0_54
*90 FILLER_0_57
*91 FILLER_0_63
*92 FILLER_0_80
*93 FILLER_1_11
*94 FILLER_1_25
*95 FILLER_1_3
*96 FILLER_1_50
*97 FILLER_1_60
*98 FILLER_1_76
*99 FILLER_2_11
*100 FILLER_2_25
*101 FILLER_2_29
*102 FILLER_2_3
*103 FILLER_2_33
*104 FILLER_2_37
*105 FILLER_2_45
*106 FILLER_2_57
*107 FILLER_2_65
*108 FILLER_2_75
*109 FILLER_3_16
*110 FILLER_3_24
*111 FILLER_3_3
*112 FILLER_3_34
*113 FILLER_3_42
*114 FILLER_3_78
*115 FILLER_3_9
*116 FILLER_4_19
*117 FILLER_4_27
*118 FILLER_4_29
*119 FILLER_4_3
*120 FILLER_4_40
*121 FILLER_4_60
*122 FILLER_4_72
*123 FILLER_4_76
*124 FILLER_4_8
*125 FILLER_5_18
*126 FILLER_5_22
*127 FILLER_5_41
*128 FILLER_5_52
*129 FILLER_5_57
*130 FILLER_5_63
*131 FILLER_5_7
*132 FILLER_6_15
*133 FILLER_6_29
*134 FILLER_6_3
*135 FILLER_6_41
*136 FILLER_6_58
*137 FILLER_6_76
*138 FILLER_7_20
*139 FILLER_7_28
*140 FILLER_7_33
*141 FILLER_7_45
*142 FILLER_7_54
*143 FILLER_7_57
*144 FILLER_7_65
*145 FILLER_7_80
*146 FILLER_8_15
*147 FILLER_8_3
*148 FILLER_8_36
*149 FILLER_8_42
*150 FILLER_8_55
*151 FILLER_8_67
*152 FILLER_8_79
*153 FILLER_9_19
*154 FILLER_9_27
*155 FILLER_9_36
*156 FILLER_9_57
*157 FILLER_9_63
*158 FILLER_9_7
*159 FILLER_9_75
*160 PHY_EDGE_ROW_0_Left_10
*161 PHY_EDGE_ROW_0_Right_0
*162 PHY_EDGE_ROW_1_Left_11
*163 PHY_EDGE_ROW_1_Right_1
*164 PHY_EDGE_ROW_2_Left_12
*165 PHY_EDGE_ROW_2_Right_2
*166 PHY_EDGE_ROW_3_Left_13
*167 PHY_EDGE_ROW_3_Right_3
*168 PHY_EDGE_ROW_4_Left_14
*169 PHY_EDGE_ROW_4_Right_4
*170 PHY_EDGE_ROW_5_Left_15
*171 PHY_EDGE_ROW_5_Right_5
*172 PHY_EDGE_ROW_6_Left_16
*173 PHY_EDGE_ROW_6_Right_6
*174 PHY_EDGE_ROW_7_Left_17
*175 PHY_EDGE_ROW_7_Right_7
*176 PHY_EDGE_ROW_8_Left_18
*177 PHY_EDGE_ROW_8_Right_8
*178 PHY_EDGE_ROW_9_Left_19
*179 PHY_EDGE_ROW_9_Right_9
*180 TAP_TAPCELL_ROW_0_20
*181 TAP_TAPCELL_ROW_0_21
*182 TAP_TAPCELL_ROW_1_22
*183 TAP_TAPCELL_ROW_2_23
*184 TAP_TAPCELL_ROW_3_24
*185 TAP_TAPCELL_ROW_4_25
*186 TAP_TAPCELL_ROW_5_26
*187 TAP_TAPCELL_ROW_6_27
*188 TAP_TAPCELL_ROW_7_28
*189 TAP_TAPCELL_ROW_8_29
*190 TAP_TAPCELL_ROW_9_30
*191 TAP_TAPCELL_ROW_9_31
*192 _049_
*193 _050_
*194 _051_
*195 _052_
*196 _053_
*197 _054_
*198 _055_
*199 _056_
*200 _057_
*201 _058_
*202 _059_
*203 _060_
*204 _061_
*205 _062_
*206 _063_
*207 _064_
*208 _065_
*209 _066_
*210 _067_
*211 _068_
*212 _069_
*213 _070_
*214 _071_
*215 _072_
*216 _073_
*217 _074_
*218 _075_
*219 _076_
*220 _077_
*221 _078_
*222 _079_
*223 _080_
*224 _081_
*225 _082_
*226 _083_
*227 _084_
*228 _085_
*229 _086_
*230 _087_
*231 _088_
*232 _089_
*233 _090_
*234 _091_
*235 _092_
*236 _093_
*237 _094_
*238 _095_
*239 _096_
*240 _097_
*241 _098_
*242 _099_
*243 _100_
*244 _101_
*245 _102_
*246 _103_
*247 _104_
*248 _105_
*249 input1
*250 input2
*251 input3
*252 input4
*253 input5
*254 input6
*255 input7
*256 input8
*257 output10
*258 output11
*259 output12
*260 output13
*261 output14
*262 output15
*263 output16
*264 output9

*PORTS
A[0] I
A[1] I
A[2] I
A[3] I
B[0] I
B[1] I
B[2] I
B[3] I
P[0] O
P[1] O
P[2] O
P[3] O
P[4] O
P[5] O
P[6] O
P[7] O

*D_NET *1 0.00165747
*CONN
*P A[0] I
*I *249:A I *D sky130_fd_sc_hd__clkbuf_2
*CAP
1 A[0] 0.000672718
2 *249:A 0
3 *1:9 0.000672718
4 *1:9 P[1] 0
5 *1:9 *250:A 5.50106e-05
6 *1:9 *21:8 4.49496e-05
7 *1:9 *68:10 6.75839e-05
8 *1:9 *76:10 0.000144494
*RES
1 A[0] *1:9 29.21 
2 *1:9 *249:A 23 
*END

*D_NET *2 0.000947351
*CONN
*P A[1] I
*I *250:A I *D sky130_fd_sc_hd__dlymetal6s2s_1
*CAP
1 A[1] 0.000431478
2 *250:A 0.000431478
3 *250:A *217:A1 0
4 *250:A *68:10 2.93845e-05
5 *1:9 *250:A 5.50106e-05
*RES
1 A[1] *250:A 47.3214 
*END

*D_NET *3 0.000619717
*CONN
*P A[2] I
*I *251:A I *D sky130_fd_sc_hd__dlymetal6s2s_1
*CAP
1 A[2] 0.00023043
2 *251:A 0.00023043
3 *251:A P[2] 8.06147e-05
4 *251:A *252:A 7.82427e-05
5 *251:A *82:23 0
6 *251:A *82:34 0
*RES
1 A[2] *251:A 48.4875 
*END

*D_NET *4 0.000538553
*CONN
*P A[3] I
*I *252:A I *D sky130_fd_sc_hd__buf_1
*CAP
1 A[3] 0.000230155
2 *252:A 0.000230155
3 *251:A *252:A 7.82427e-05
*RES
1 A[3] *252:A 47.7832 
*END

*D_NET *5 0.00173415
*CONN
*P B[0] I
*I *253:A I *D sky130_fd_sc_hd__buf_1
*CAP
1 B[0] 0.000696351
2 *253:A 0
3 *5:15 0.000696351
4 *5:15 *192:A 6.26126e-05
5 *5:15 *192:B 3.32409e-05
6 *5:15 *193:A 4.37033e-05
7 *5:15 *255:A 0
8 *5:15 *19:14 1.14876e-05
9 *5:15 *19:23 9.24795e-06
10 *5:15 *20:18 9.84851e-05
11 *5:15 *23:16 2.30292e-05
12 *5:15 *25:10 5.50049e-05
13 *5:15 *68:37 4.6318e-06
*RES
1 B[0] *5:15 29.5207 
2 *5:15 *253:A 23 
*END

*D_NET *6 0.00209883
*CONN
*P B[1] I
*I *254:A I *D sky130_fd_sc_hd__buf_1
*CAP
1 B[1] 0.000737617
2 *254:A 0
3 *6:11 0.000737617
4 *6:11 P[1] 0
5 *6:11 *194:B 2.93747e-05
6 *6:11 *195:B 0.000163361
7 *6:11 *196:C 6.17437e-06
8 *6:11 *198:B1_N 7.88926e-05
9 *6:11 *255:A 0
10 *6:11 *20:10 0.00010018
11 *6:11 *69:8 7.8128e-05
12 *6:11 *76:23 6.7177e-06
13 *6:11 *79:36 0.000102638
14 *6:11 *80:10 2.06822e-05
15 *6:11 *81:10 3.74442e-05
*RES
1 B[1] *6:11 30.7221 
2 *6:11 *254:A 23 
*END

*D_NET *7 0.000994501
*CONN
*P B[2] I
*I *255:A I *D sky130_fd_sc_hd__clkbuf_2
*CAP
1 B[2] 0.00043439
2 *255:A 0.00043439
3 *255:A *68:37 9.84851e-05
4 *255:A *81:10 2.7237e-05
5 *5:15 *255:A 0
6 *6:11 *255:A 0
*RES
1 B[2] *255:A 47.4457 
*END

*D_NET *8 0.000454364
*CONN
*P B[3] I
*I *256:A I *D sky130_fd_sc_hd__buf_2
*CAP
1 B[3] 0.000150795
2 *256:A 0.000150795
3 *256:A P[0] 7.21596e-05
4 *256:A P[2] 8.06147e-05
5 *256:A *25:10 0
*RES
1 B[3] *256:A 47.0789 
*END

*D_NET *9 0.000540028
*CONN
*P P[0] O
*I *264:X O *D sky130_fd_sc_hd__buf_2
*CAP
1 P[0] 0.000221583
2 *264:X 0.000221583
3 P[0] *83:8 2.47015e-05
4 *256:A P[0] 7.21596e-05
*RES
1 *264:X P[0] 47.1648 
*END

*D_NET *10 0.00095394
*CONN
*P P[1] O
*I *257:X O *D sky130_fd_sc_hd__buf_2
*CAP
1 P[1] 0.000449255
2 *257:X 0.000449255
3 P[1] *76:10 5.54294e-05
4 *1:9 P[1] 0
5 *6:11 P[1] 0
*RES
1 *257:X P[1] 47.3836 
*END

*D_NET *11 0.000686655
*CONN
*P P[2] O
*I *258:X O *D sky130_fd_sc_hd__buf_2
*CAP
1 P[2] 0.000241043
2 *258:X 0.000241043
3 P[2] *70:8 4.334e-05
4 P[2] *82:23 0
5 *251:A P[2] 8.06147e-05
6 *256:A P[2] 8.06147e-05
*RES
1 *258:X P[2] 48.5734 
*END

*D_NET *12 0.000766038
*CONN
*P P[3] O
*I *259:X O *D sky130_fd_sc_hd__buf_2
*CAP
1 P[3] 9.40689e-05
2 *259:X 0.00028895
3 *12:14 0.000383019
*RES
1 *259:X *12:14 49.9 
2 *12:14 P[3] 0.382667 
*END

*D_NET *13 0.00076164
*CONN
*P P[4] O
*I *260:X O *D sky130_fd_sc_hd__buf_2
*CAP
1 P[4] 0.000349988
2 *260:X 0.000349988
3 P[4] *72:8 6.16635e-05
*RES
1 *260:X P[4] 48.6592 
*END

*D_NET *14 0.00152609
*CONN
*P P[5] O
*I *261:X O *D sky130_fd_sc_hd__buf_2
*CAP
1 P[5] 0.000714855
2 *261:X 0
3 *14:6 0.000714855
4 P[5] P[7] 0
5 P[5] *73:10 9.63815e-05
*RES
1 *261:X *14:6 38 
2 *14:6 P[5] 15.5564 
*END

*D_NET *15 0.00100219
*CONN
*P P[6] O
*I *262:X O *D sky130_fd_sc_hd__buf_2
*CAP
1 P[6] 0.000501094
2 *262:X 0.000501094
*RES
1 *262:X P[6] 48.9786 
*END

*D_NET *16 0.00136861
*CONN
*P P[7] O
*I *263:X O *D sky130_fd_sc_hd__buf_2
*CAP
1 P[7] 0.00046748
2 *263:X 0.000200721
3 *16:8 0.000668202
4 *16:8 *263:A 3.22051e-05
5 P[5] P[7] 0
*RES
1 *263:X *16:8 40.5271 
2 *16:8 P[7] 10.0257 
*END

*D_NET *19 0.00173227
*CONN
*I *199:B I *D sky130_fd_sc_hd__and4_1
*I *193:A I *D sky130_fd_sc_hd__inv_2
*I *200:A1 I *D sky130_fd_sc_hd__a22o_1
*I *192:Y O *D sky130_fd_sc_hd__nand2_1
*CAP
1 *199:B 9.89389e-05
2 *193:A 0.000200567
3 *200:A1 0
4 *192:Y 0
5 *19:23 0.000339741
6 *19:14 0.000269066
7 *19:4 0.000309301
8 *193:A *192:A 9.49359e-06
9 *193:A *25:10 2.22269e-05
10 *193:A *79:21 1.01436e-05
11 *199:B *25:10 7.10099e-05
12 *199:B *79:21 8.4047e-05
13 *199:B *83:8 0
14 *19:14 *192:B 0.000137651
15 *19:14 *200:B2 0
16 *19:14 *20:18 4.18957e-05
17 *19:14 *23:16 6.16531e-05
18 *19:14 *25:10 6.7177e-06
19 *19:14 *68:37 0
20 *19:23 *192:A 5.37348e-06
21 *5:15 *193:A 4.37033e-05
22 *5:15 *19:14 1.14876e-05
23 *5:15 *19:23 9.24795e-06
*RES
1 *192:Y *19:4 23 
2 *19:4 *19:14 34.2257 
3 *19:14 *200:A1 23 
4 *19:4 *19:23 15.6214 
5 *19:23 *193:A 41.6871 
6 *19:23 *199:B 40.2579 
*END

*D_NET *20 0.00233877
*CONN
*I *199:C I *D sky130_fd_sc_hd__and4_1
*I *200:A2 I *D sky130_fd_sc_hd__a22o_1
*I *194:X O *D sky130_fd_sc_hd__and2_1
*CAP
1 *199:C 6.45891e-05
2 *200:A2 0
3 *194:X 0.000445264
4 *20:18 0.000175558
5 *20:10 0.000685411
6 *199:C *199:A 1.5769e-05
7 *199:C *199:D 4.08664e-05
8 *20:10 *198:A1 5.41385e-05
9 *20:10 *198:B1_N 6.51763e-05
10 *20:10 *199:A 2.80394e-05
11 *20:10 *199:D 9.84794e-05
12 *20:10 *23:16 5.50106e-05
13 *20:10 *79:21 1.09838e-05
14 *20:18 *192:B 5.12254e-05
15 *20:18 *23:16 4.48731e-05
16 *20:18 *25:10 0.000262829
17 *20:18 *82:14 0
18 *5:15 *20:18 9.84851e-05
19 *6:11 *20:10 0.00010018
20 *19:14 *20:18 4.18957e-05
*RES
1 *194:X *20:10 30.9336 
2 *20:10 *20:18 34.7643 
3 *20:18 *200:A2 23 
4 *20:10 *199:C 24.0979 
*END

*D_NET *21 0.00353759
*CONN
*I *196:A_N I *D sky130_fd_sc_hd__and3b_1
*I *218:B1 I *D sky130_fd_sc_hd__a21o_1
*I *214:A I *D sky130_fd_sc_hd__and3_1
*I *217:B1 I *D sky130_fd_sc_hd__a21oi_1
*I *195:X O *D sky130_fd_sc_hd__and4_1
*CAP
1 *196:A_N 0
2 *218:B1 0
3 *214:A 9.42592e-05
4 *217:B1 0.000144606
5 *195:X 0.000138786
6 *21:45 0.000107924
7 *21:25 0.000191112
8 *21:8 0.00094214
9 *21:6 0.000947392
10 *214:A *214:C 0.000135923
11 *214:A *218:A2 0
12 *214:A *37:10 5.3304e-05
13 *217:B1 *217:A1 4.06849e-05
14 *217:B1 *41:10 3.22879e-05
15 *21:6 *257:A 1.76557e-05
16 *21:6 *68:24 6.17437e-06
17 *21:6 *76:10 3.00533e-05
18 *21:8 *217:A1 8.84817e-06
19 *21:8 *68:10 0.000228903
20 *21:8 *76:10 0.000151506
21 *21:25 *217:A1 3.83778e-05
22 *21:25 *30:14 3.72639e-05
23 *21:25 *37:27 0.000138718
24 *21:25 *41:10 6.7177e-06
25 *1:9 *21:8 4.49496e-05
*RES
1 *195:X *21:6 25.0507 
2 *21:6 *21:8 10.6264 
3 *21:8 *217:B1 26.3971 
4 *21:8 *21:25 32.2579 
5 *21:25 *214:A 25.0714 
6 *21:25 *218:B1 23 
7 *21:6 *21:45 31.5536 
8 *21:45 *196:A_N 23 
*END

*D_NET *22 0.0049937
*CONN
*I *210:B2 I *D sky130_fd_sc_hd__a2bb2o_1
*I *209:C I *D sky130_fd_sc_hd__nand4b_1
*I *202:A I *D sky130_fd_sc_hd__xnor2_1
*I *197:Y O *D sky130_fd_sc_hd__nand2_1
*CAP
1 *210:B2 2.30556e-05
2 *209:C 0
3 *202:A 0.000218201
4 *197:Y 0.000118303
5 *22:33 0.000226922
6 *22:25 0.00145029
7 *22:8 0.00153682
8 *202:A *79:52 5.50106e-05
9 *22:8 *224:B1 1.37349e-05
10 *22:8 *25:20 0.000140958
11 *22:8 *77:25 0
12 *22:8 *77:60 0.000114083
13 *22:8 *82:23 1.4471e-05
14 *22:25 *210:A1_N 4.79132e-05
15 *22:25 *231:A 0.000298209
16 *22:25 *29:23 0.000530094
17 *22:25 *32:21 3.7122e-06
18 *22:25 *55:8 0.000105808
19 *22:25 *77:25 0
20 *22:25 *82:23 3.31683e-05
21 *22:33 *210:A2_N 0
22 *22:33 *30:45 1.14452e-05
23 *22:33 *32:21 5.1501e-05
24 *22:33 *33:10 0
25 *22:33 *44:8 0
*RES
1 *197:Y *22:8 40.61 
2 *22:8 *202:A 41.5007 
3 *22:8 *22:25 32.8971 
4 *22:25 *22:33 33.48 
5 *22:33 *209:C 23 
6 *22:25 *210:B2 23.4971 
*END

*D_NET *23 0.00103165
*CONN
*I *199:D I *D sky130_fd_sc_hd__and4_1
*I *200:B1 I *D sky130_fd_sc_hd__a22o_1
*I *198:X O *D sky130_fd_sc_hd__a21bo_1
*CAP
1 *199:D 4.45597e-05
2 *200:B1 0
3 *198:X 0
4 *23:16 0.000203791
5 *23:4 0.000248351
6 *199:D *199:A 6.68822e-05
7 *23:16 *192:B 5.50049e-05
8 *23:16 *198:A1 0
9 *23:16 *199:A 5.90213e-05
10 *23:16 *200:B2 1.86869e-05
11 *23:16 *80:41 0
12 *23:16 *82:14 1.14452e-05
13 *199:C *199:D 4.08664e-05
14 *5:15 *23:16 2.30292e-05
15 *19:14 *23:16 6.16531e-05
16 *20:10 *199:D 9.84794e-05
17 *20:10 *23:16 5.50106e-05
18 *20:18 *23:16 4.48731e-05
*RES
1 *198:X *23:4 23 
2 *23:4 *23:16 34.7021 
3 *23:16 *200:B1 23 
4 *23:4 *199:D 24.5743 
*END

*D_NET *24 0.00083737
*CONN
*I *224:B1 I *D sky130_fd_sc_hd__a31o_1
*I *201:A_N I *D sky130_fd_sc_hd__and2b_1
*I *199:X O *D sky130_fd_sc_hd__and4_1
*CAP
1 *224:B1 6.21823e-05
2 *201:A_N 0
3 *199:X 7.70833e-05
4 *24:8 0.000139266
5 *224:B1 *77:60 0.000155077
6 *224:B1 *82:23 0.000196549
7 *24:8 *25:10 3.62219e-05
8 *24:8 *77:60 3.92407e-05
9 *24:8 *80:41 0
10 *24:8 *82:14 2.54046e-05
11 *24:8 *82:23 9.26098e-05
12 *22:8 *224:B1 1.37349e-05
*RES
1 *199:X *24:8 40.2579 
2 *24:8 *201:A_N 38 
3 *24:8 *224:B1 40.61 
*END

*D_NET *25 0.00222587
*CONN
*I *201:B I *D sky130_fd_sc_hd__and2b_1
*I *224:A3 I *D sky130_fd_sc_hd__a31o_1
*I *200:X O *D sky130_fd_sc_hd__a22o_1
*CAP
1 *201:B 3.40363e-05
2 *224:A3 0
3 *200:X 0.000399264
4 *25:20 0.000276038
5 *25:12 0.000310074
6 *25:10 0.000399264
7 *201:B *82:6 1.14876e-05
8 *25:10 *68:37 0
9 *25:10 *82:14 0
10 *25:10 *82:23 0.000118174
11 *25:20 *197:A 7.53384e-06
12 *25:20 *77:25 9.48381e-06
13 *25:20 *77:60 1.22906e-05
14 *25:20 *79:52 0
15 *25:20 *82:6 1.05235e-05
16 *25:20 *82:14 4.27353e-05
17 *193:A *25:10 2.22269e-05
18 *199:B *25:10 7.10099e-05
19 *256:A *25:10 0
20 *5:15 *25:10 5.50049e-05
21 *19:14 *25:10 6.7177e-06
22 *20:18 *25:10 0.000262829
23 *22:8 *25:20 0.000140958
24 *24:8 *25:10 3.62219e-05
*RES
1 *200:X *25:10 45.8093 
2 *25:10 *25:12 15 
3 *25:12 *25:20 34.785 
4 *25:20 *224:A3 23 
5 *25:12 *201:B 23.6214 
*END

*D_NET *26 0.000207335
*CONN
*I *202:B I *D sky130_fd_sc_hd__xnor2_1
*I *201:X O *D sky130_fd_sc_hd__and2b_1
*CAP
1 *202:B 0
2 *201:X 0.000103667
3 *26:8 0.000103667
4 *26:8 *82:23 0
*RES
1 *201:X *26:8 39.9057 
2 *26:8 *202:B 38 
*END

*D_NET *27 0.00164876
*CONN
*I *204:A I *D sky130_fd_sc_hd__inv_2
*I *241:C I *D sky130_fd_sc_hd__and3_1
*I *203:Y O *D sky130_fd_sc_hd__nand2_1
*CAP
1 *204:A 0
2 *241:C 0
3 *203:Y 0
4 *27:27 0.000270257
5 *27:14 0.000199919
6 *27:4 0.000470175
7 *27:14 *203:A 2.72222e-05
8 *27:14 *241:A 8.45829e-05
9 *27:14 *28:16 0.000171555
10 *27:14 *54:10 4.96264e-05
11 *27:14 *81:55 1.5643e-05
12 *27:14 *82:40 9.67842e-05
13 *27:14 *82:57 4.08537e-05
14 *27:27 *203:B 2.32004e-05
15 *27:27 *229:B 1.03955e-05
16 *27:27 *241:B 4.21594e-06
17 *27:27 *77:67 0
18 *27:27 *78:22 0.00014196
19 *27:27 *78:50 4.23714e-05
*RES
1 *203:Y *27:4 23 
2 *27:4 *27:14 34.5364 
3 *27:14 *241:C 23 
4 *27:4 *27:27 34.4329 
5 *27:27 *204:A 23 
*END

*D_NET *28 0.00334288
*CONN
*I *245:A1 I *D sky130_fd_sc_hd__o311a_1
*I *212:B1 I *D sky130_fd_sc_hd__a21o_1
*I *236:A1 I *D sky130_fd_sc_hd__a21bo_1
*I *211:A I *D sky130_fd_sc_hd__nand3_1
*I *204:Y O *D sky130_fd_sc_hd__inv_2
*CAP
1 *245:A1 0
2 *212:B1 0
3 *236:A1 0
4 *211:A 0.000124596
5 *204:Y 0.000167084
6 *28:18 0.000198876
7 *28:16 0.000440474
8 *28:8 0.000533278
9 *211:A *211:B 5.3304e-05
10 *211:A *211:C 0.000141052
11 *211:A *239:B1 0.000180218
12 *211:A *33:23 1.63023e-05
13 *211:A *34:23 2.86356e-05
14 *211:A *48:14 7.42621e-05
15 *28:8 *241:B 0.000175876
16 *28:8 *245:C1 0
17 *28:8 *56:6 0.0002263
18 *28:8 *82:40 1.73274e-05
19 *28:16 *241:A 5.54375e-05
20 *28:16 *241:B 0.000200993
21 *28:16 *34:10 2.24366e-06
22 *28:16 *36:8 8.563e-05
23 *28:16 *82:40 2.32101e-05
24 *28:18 *34:23 0.000317079
25 *28:18 *48:14 0.000109147
26 *27:14 *28:16 0.000171555
*RES
1 *204:Y *28:8 27.3293 
2 *28:8 *28:16 38.4721 
3 *28:16 *28:18 3.48 
4 *28:18 *211:A 27.4743 
5 *28:18 *236:A1 23 
6 *28:16 *212:B1 23 
7 *28:8 *245:A1 23 
*END

*D_NET *29 0.00275857
*CONN
*I *231:A I *D sky130_fd_sc_hd__and2_1
*I *232:A I *D sky130_fd_sc_hd__xnor2_1
*I *210:A1_N I *D sky130_fd_sc_hd__a2bb2o_1
*I *205:X O *D sky130_fd_sc_hd__and4_1
*CAP
1 *231:A 9.11042e-05
2 *232:A 2.99431e-05
3 *210:A1_N 4.32959e-05
4 *205:X 0.000331567
5 *29:23 0.000341162
6 *29:12 0.00026341
7 *29:10 0.000331567
8 *210:A1_N *34:10 3.7122e-06
9 *231:A *231:B 5.93795e-05
10 *231:A *232:B 9.16459e-05
11 *231:A *55:8 1.76557e-05
12 *232:A *231:B 0
13 *232:A *232:B 1.31913e-05
14 *232:A *54:10 1.75949e-05
15 *29:10 *207:B 5.67058e-05
16 *29:10 *210:A2_N 4.76863e-05
17 *29:10 *30:45 0
18 *29:10 *31:14 0.000132848
19 *29:10 *82:57 0
20 *29:23 *34:10 9.87985e-06
21 *22:25 *210:A1_N 4.79132e-05
22 *22:25 *231:A 0.000298209
23 *22:25 *29:23 0.000530094
*RES
1 *205:X *29:10 44.0486 
2 *29:10 *29:12 15 
3 *29:12 *210:A1_N 24.0979 
4 *29:12 *29:23 6.35929 
5 *29:23 *232:A 24.2636 
6 *29:23 *231:A 26.9771 
*END

*D_NET *30 0.00337785
*CONN
*I *209:D I *D sky130_fd_sc_hd__nand4b_1
*I *218:A1 I *D sky130_fd_sc_hd__a21o_1
*I *214:B I *D sky130_fd_sc_hd__and3_1
*I *217:A1 I *D sky130_fd_sc_hd__a21oi_1
*I *206:Y O *D sky130_fd_sc_hd__nand4_2
*CAP
1 *209:D 0
2 *218:A1 0
3 *214:B 0.000256649
4 *217:A1 0.000291217
5 *206:Y 0.000130876
6 *30:45 0.000271562
7 *30:14 0.000653331
8 *30:10 0.000378265
9 *30:8 0.000675239
10 *214:B *214:C 8.77197e-05
11 *214:B *37:10 6.53382e-05
12 *217:A1 *37:27 2.72055e-05
13 *217:A1 *68:10 0
14 *30:8 *213:A1 0.000125235
15 *30:8 *213:B2 1.91457e-05
16 *30:10 *213:A1 9.75779e-05
17 *30:10 *213:A2 1.76557e-05
18 *30:10 *37:8 4.06849e-05
19 *30:10 *37:10 1.94812e-05
20 *30:14 *41:10 0
21 *30:14 *42:8 0
22 *30:14 *68:81 0
23 *30:14 *81:30 0
24 *30:45 *31:14 0
25 *30:45 *44:8 0
26 *30:45 *76:71 0
27 *30:45 *81:30 8.4047e-05
28 *30:45 *82:72 0
29 *217:B1 *217:A1 4.06849e-05
30 *250:A *217:A1 0
31 *21:8 *217:A1 8.84817e-06
32 *21:25 *217:A1 3.83778e-05
33 *21:25 *30:14 3.72639e-05
34 *22:33 *30:45 1.14452e-05
35 *29:10 *30:45 0
*RES
1 *206:Y *30:8 25.4236 
2 *30:8 *30:10 3.95643 
3 *30:10 *30:14 16.9057 
4 *30:14 *217:A1 43.0129 
5 *30:14 *214:B 41.48 
6 *30:10 *218:A1 23 
7 *30:8 *30:45 35.075 
8 *30:45 *209:D 23 
*END

*D_NET *31 0.00140481
*CONN
*I *210:A2_N I *D sky130_fd_sc_hd__a2bb2o_1
*I *209:A_N I *D sky130_fd_sc_hd__nand4b_1
*I *207:Y O *D sky130_fd_sc_hd__nand2_1
*CAP
1 *210:A2_N 0.000118786
2 *209:A_N 4.49449e-05
3 *207:Y 0.000278712
4 *31:14 0.000442443
5 *209:A_N *209:B 5.79559e-05
6 *209:A_N *32:6 0.000130971
7 *209:A_N *40:6 6.49703e-05
8 *210:A2_N *32:21 4.22374e-05
9 *31:14 *207:A 1.08287e-05
10 *31:14 *207:B 3.24262e-05
11 *22:33 *210:A2_N 0
12 *29:10 *210:A2_N 4.76863e-05
13 *29:10 *31:14 0.000132848
14 *30:45 *31:14 0
*RES
1 *207:Y *31:14 43.075 
2 *31:14 *209:A_N 40.0507 
3 *31:14 *210:A2_N 40.61 
*END

*D_NET *32 0.00158443
*CONN
*I *210:B1 I *D sky130_fd_sc_hd__a2bb2o_1
*I *209:B I *D sky130_fd_sc_hd__nand4b_1
*I *208:X O *D sky130_fd_sc_hd__and2_1
*CAP
1 *210:B1 0
2 *209:B 0.000111186
3 *208:X 0.000288539
4 *32:21 0.000192295
5 *32:6 0.00059202
6 *209:B *40:6 3.38098e-05
7 *32:6 *40:6 8.01999e-05
8 *32:21 *33:10 0
9 *209:A_N *209:B 5.79559e-05
10 *209:A_N *32:6 0.000130971
11 *210:A2_N *32:21 4.22374e-05
12 *22:25 *32:21 3.7122e-06
13 *22:33 *32:21 5.1501e-05
*RES
1 *208:X *32:6 28.3857 
2 *32:6 *209:B 25.0507 
3 *32:6 *32:21 33.2314 
4 *32:21 *210:B1 23 
*END

*D_NET *33 0.00261815
*CONN
*I *212:A1 I *D sky130_fd_sc_hd__a21o_1
*I *236:B1_N I *D sky130_fd_sc_hd__a21bo_1
*I *211:B I *D sky130_fd_sc_hd__nand3_1
*I *209:Y O *D sky130_fd_sc_hd__nand4b_1
*CAP
1 *212:A1 0.000166787
2 *236:B1_N 0
3 *211:B 3.37343e-05
4 *209:Y 0.000292737
5 *33:23 0.000481987
6 *33:12 0.000348935
7 *33:10 0.000292737
8 *212:A1 *34:23 0.000213455
9 *33:10 *239:B1 2.71291e-05
10 *33:10 *40:6 1.18615e-05
11 *33:10 *44:8 0.000376233
12 *33:23 *211:C 6.9805e-05
13 *33:23 *34:23 0.000233146
14 *211:A *211:B 5.3304e-05
15 *211:A *33:23 1.63023e-05
16 *22:33 *33:10 0
17 *32:21 *33:10 0
*RES
1 *209:Y *33:10 44.1729 
2 *33:10 *33:12 15 
3 *33:12 *211:B 23.6214 
4 *33:12 *33:23 5.28214 
5 *33:23 *236:B1_N 23 
6 *33:23 *212:A1 25.5271 
*END

*D_NET *34 0.00184053
*CONN
*I *236:A2 I *D sky130_fd_sc_hd__a21bo_1
*I *211:C I *D sky130_fd_sc_hd__nand3_1
*I *212:A2 I *D sky130_fd_sc_hd__a21o_1
*I *210:X O *D sky130_fd_sc_hd__a2bb2o_1
*CAP
1 *236:A2 0
2 *211:C 3.56431e-05
3 *212:A2 0
4 *210:X 0.000198592
5 *34:23 0.000194359
6 *34:12 0.000158716
7 *34:10 0.000198592
8 *34:23 *48:14 3.56215e-05
9 *210:A1_N *34:10 3.7122e-06
10 *211:A *211:C 0.000141052
11 *211:A *34:23 2.86356e-05
12 *212:A1 *34:23 0.000213455
13 *28:16 *34:10 2.24366e-06
14 *28:18 *34:23 0.000317079
15 *29:23 *34:10 9.87985e-06
16 *33:23 *211:C 6.9805e-05
17 *33:23 *34:23 0.000233146
*RES
1 *210:X *34:10 40.8793 
2 *34:10 *34:12 15 
3 *34:12 *212:A2 23 
4 *34:12 *34:23 6.38 
5 *34:23 *211:C 24.5743 
6 *34:23 *236:A2 23 
*END

*D_NET *35 0.000457811
*CONN
*I *221:A I *D sky130_fd_sc_hd__and3_1
*I *222:A1 I *D sky130_fd_sc_hd__a21o_1
*I *211:Y O *D sky130_fd_sc_hd__nand3_1
*CAP
1 *221:A 0
2 *222:A1 2.90666e-05
3 *211:Y 7.99576e-05
4 *35:10 2.90666e-05
5 *35:8 7.99576e-05
6 *222:A1 *222:A2 5.50049e-05
7 *222:A1 *222:B1 9.84794e-05
8 *35:8 *44:8 8.62783e-05
9 *35:8 *61:10 0
*RES
1 *211:Y *35:8 39.5536 
2 *35:8 *35:10 15 
3 *35:10 *222:A1 24.0979 
4 *35:10 *221:A 23 
*END

*D_NET *36 0.00179629
*CONN
*I *221:B I *D sky130_fd_sc_hd__and3_1
*I *222:A2 I *D sky130_fd_sc_hd__a21o_1
*I *212:X O *D sky130_fd_sc_hd__a21o_1
*CAP
1 *221:B 0
2 *222:A2 0.000124842
3 *212:X 0.000212558
4 *36:12 0.000472536
5 *36:8 0.000560253
6 *222:A2 *221:C 2.93845e-05
7 *222:A2 *222:B1 2.02872e-05
8 *36:8 *237:B 0
9 *36:8 *239:B1 0
10 *36:8 *45:10 7.69256e-06
11 *36:12 *221:C 8.9521e-07
12 *36:12 *45:10 0.000227208
13 *222:A1 *222:A2 5.50049e-05
14 *28:16 *36:8 8.563e-05
*RES
1 *212:X *36:8 42.0186 
2 *36:8 *36:12 19.9093 
3 *36:12 *222:A2 25.7757 
4 *36:12 *221:B 23 
*END

*D_NET *37 0.00148249
*CONN
*I *218:A2 I *D sky130_fd_sc_hd__a21o_1
*I *217:A2 I *D sky130_fd_sc_hd__a21oi_1
*I *214:C I *D sky130_fd_sc_hd__and3_1
*I *213:X O *D sky130_fd_sc_hd__a22o_1
*CAP
1 *218:A2 1.31028e-05
2 *217:A2 0
3 *214:C 0.000115971
4 *213:X 5.5976e-05
5 *37:27 0.000143159
6 *37:10 0.000352831
7 *37:8 0.00016278
8 *218:A2 *213:A2 0
9 *37:8 *213:A2 5.90675e-06
10 *37:27 *41:10 6.4393e-05
11 *214:A *214:C 0.000135923
12 *214:A *218:A2 0
13 *214:A *37:10 5.3304e-05
14 *214:B *214:C 8.77197e-05
15 *214:B *37:10 6.53382e-05
16 *217:A1 *37:27 2.72055e-05
17 *21:25 *37:27 0.000138718
18 *30:10 *37:8 4.06849e-05
19 *30:10 *37:10 1.94812e-05
*RES
1 *213:X *37:8 24.595 
2 *37:8 *37:10 2.05071 
3 *37:10 *214:C 26.1279 
4 *37:10 *37:27 32.9621 
5 *37:27 *217:A2 23 
6 *37:8 *218:A2 23.4971 
*END

*D_NET *38 0.00152847
*CONN
*I *225:A1 I *D sky130_fd_sc_hd__o21bai_1
*I *219:A I *D sky130_fd_sc_hd__or3b_1
*I *220:B1 I *D sky130_fd_sc_hd__a21o_1
*I *214:X O *D sky130_fd_sc_hd__and3_1
*CAP
1 *225:A1 0.000172317
2 *219:A 0
3 *220:B1 0.00029
4 *214:X 0.000144514
5 *38:10 0.00029
6 *38:8 0.000316831
7 *220:B1 *219:B 1.14762e-05
8 *220:B1 *219:C_N 5.55784e-05
9 *225:A1 *225:A2 5.50106e-05
10 *225:A1 *41:10 0
11 *225:A1 *43:10 0.000163361
12 *225:A1 *49:10 2.93845e-05
13 *38:8 *41:10 0
*RES
1 *214:X *38:8 39.9057 
2 *38:8 *38:10 15 
3 *38:10 *220:B1 27.9507 
4 *38:10 *219:A 23 
5 *38:8 *225:A1 41.9357 
*END

*D_NET *39 0.00173559
*CONN
*I *216:A_N I *D sky130_fd_sc_hd__and3b_1
*I *231:B I *D sky130_fd_sc_hd__and2_1
*I *232:B I *D sky130_fd_sc_hd__xnor2_1
*I *215:X O *D sky130_fd_sc_hd__and4_1
*CAP
1 *216:A_N 0.000242067
2 *231:B 4.16836e-05
3 *232:B 5.76565e-05
4 *215:X 0
5 *39:10 0.000243237
6 *39:4 0.000385964
7 *216:A_N *215:D 0
8 *216:A_N *48:10 5.41288e-05
9 *216:A_N *77:27 5.5396e-05
10 *216:A_N *79:52 5.3304e-05
11 *216:A_N *80:43 0.000185428
12 *231:B *55:8 9.84851e-05
13 *232:B *54:10 6.9805e-05
14 *232:B *55:8 5.50049e-05
15 *39:10 *215:B 2.76611e-06
16 *39:10 *48:10 0
17 *39:10 *78:30 2.64506e-05
18 *231:A *231:B 5.93795e-05
19 *231:A *232:B 9.16459e-05
20 *232:A *231:B 0
21 *232:A *232:B 1.31913e-05
*RES
1 *215:X *39:4 23 
2 *39:4 *39:10 32.2579 
3 *39:10 *232:B 25.0507 
4 *39:10 *231:B 24.595 
5 *39:4 *216:A_N 27.9507 
*END

*D_NET *40 0.00455685
*CONN
*I *219:C_N I *D sky130_fd_sc_hd__or3b_1
*I *220:A1 I *D sky130_fd_sc_hd__a21o_1
*I *225:B1_N I *D sky130_fd_sc_hd__o21bai_1
*I *216:X O *D sky130_fd_sc_hd__and3b_1
*CAP
1 *219:C_N 8.64606e-05
2 *220:A1 0
3 *225:B1_N 0.000373237
4 *216:X 0.00128682
5 *40:19 0.000219004
6 *40:6 0.0017926
7 *219:C_N *219:B 6.17437e-06
8 *225:B1_N *225:A2 0.000121021
9 *225:B1_N *49:10 4.37586e-06
10 *40:6 *208:B 0.000123944
11 *40:6 *215:C 1.40958e-05
12 *40:6 *215:D 0.000187129
13 *40:6 *80:43 7.44161e-06
14 *40:19 *225:A2 3.83778e-05
15 *40:19 *41:10 3.82956e-05
16 *40:19 *42:8 1.14452e-05
17 *40:19 *44:8 0
18 *209:A_N *40:6 6.49703e-05
19 *209:B *40:6 3.38098e-05
20 *220:B1 *219:C_N 5.55784e-05
21 *32:6 *40:6 8.01999e-05
22 *33:10 *40:6 1.18615e-05
*RES
1 *216:X *40:6 40.7729 
2 *40:6 *225:B1_N 27.9093 
3 *40:6 *40:19 32.2579 
4 *40:19 *220:A1 23 
5 *40:19 *219:C_N 25.0921 
*END

*D_NET *41 0.00187695
*CONN
*I *225:A2 I *D sky130_fd_sc_hd__o21bai_1
*I *219:B I *D sky130_fd_sc_hd__or3b_1
*I *217:Y O *D sky130_fd_sc_hd__a21oi_1
*CAP
1 *225:A2 0.000233519
2 *219:B 4.75972e-05
3 *217:Y 0.000393902
4 *41:10 0.000675018
5 *225:A2 *44:8 0
6 *225:A2 *49:10 1.21972e-05
7 *41:10 *42:8 0.000140958
8 *217:B1 *41:10 3.22879e-05
9 *219:C_N *219:B 6.17437e-06
10 *220:B1 *219:B 1.14762e-05
11 *225:A1 *225:A2 5.50106e-05
12 *225:A1 *41:10 0
13 *225:B1_N *225:A2 0.000121021
14 *21:25 *41:10 6.7177e-06
15 *30:14 *41:10 0
16 *37:27 *41:10 6.4393e-05
17 *38:8 *41:10 0
18 *40:19 *225:A2 3.83778e-05
19 *40:19 *41:10 3.82956e-05
*RES
1 *217:Y *41:10 44.4007 
2 *41:10 *219:B 38.6214 
3 *41:10 *225:A2 42.93 
*END

*D_NET *42 0.00031077
*CONN
*I *220:A2 I *D sky130_fd_sc_hd__a21o_1
*I *218:X O *D sky130_fd_sc_hd__a21o_1
*CAP
1 *220:A2 0
2 *218:X 7.91832e-05
3 *42:8 7.91832e-05
4 *30:14 *42:8 0
5 *40:19 *42:8 1.14452e-05
6 *41:10 *42:8 0.000140958
*RES
1 *218:X *42:8 39.9057 
2 *42:8 *220:A2 38 
*END

*D_NET *43 0.00174056
*CONN
*I *239:A1 I *D sky130_fd_sc_hd__a31o_1
*I *247:A1 I *D sky130_fd_sc_hd__a21oi_1
*I *226:A I *D sky130_fd_sc_hd__and3_1
*I *219:X O *D sky130_fd_sc_hd__or3b_1
*CAP
1 *239:A1 0.000233013
2 *247:A1 7.21839e-05
3 *226:A 2.0995e-05
4 *219:X 0.000289312
5 *43:14 0.000137664
6 *43:10 0.00056681
7 *226:A *226:C 1.14154e-05
8 *239:A1 *239:A3 9.95114e-05
9 *239:A1 *49:10 2.71291e-05
10 *239:A1 *50:23 0
11 *247:A1 *226:C 2.93747e-05
12 *247:A1 *67:8 1.5769e-05
13 *43:10 *49:10 3.83778e-05
14 *43:14 *226:C 3.56477e-05
15 *225:A1 *43:10 0.000163361
*RES
1 *219:X *43:10 42.64 
2 *43:10 *43:14 15.6214 
3 *43:14 *226:A 23.4971 
4 *43:14 *247:A1 24.0979 
5 *43:10 *239:A1 41.6664 
*END

*D_NET *44 0.00217337
*CONN
*I *221:C I *D sky130_fd_sc_hd__and3_1
*I *222:B1 I *D sky130_fd_sc_hd__a21o_1
*I *220:X O *D sky130_fd_sc_hd__a21o_1
*CAP
1 *221:C 4.23677e-05
2 *222:B1 0.000222372
3 *220:X 0.000495847
4 *44:10 0.000264739
5 *44:8 0.000495847
6 *44:8 *237:B 3.14274e-05
7 *44:8 *239:A2 0
8 *44:8 *239:B1 9.21347e-06
9 *44:8 *247:B1 0
10 *44:8 *49:10 0
11 *222:A1 *222:B1 9.84794e-05
12 *222:A2 *221:C 2.93845e-05
13 *222:A2 *222:B1 2.02872e-05
14 *225:A2 *44:8 0
15 *22:33 *44:8 0
16 *30:45 *44:8 0
17 *33:10 *44:8 0.000376233
18 *35:8 *44:8 8.62783e-05
19 *36:12 *221:C 8.9521e-07
20 *40:19 *44:8 0
*RES
1 *220:X *44:8 47.6529 
2 *44:8 *44:10 15 
3 *44:10 *222:B1 26.3764 
4 *44:10 *221:C 23.7043 
*END

*D_NET *45 0.00235811
*CONN
*I *240:A1 I *D sky130_fd_sc_hd__a22o_1
*I *228:B1 I *D sky130_fd_sc_hd__a21oi_1
*I *223:A_N I *D sky130_fd_sc_hd__and2b_1
*I *221:X O *D sky130_fd_sc_hd__and3_1
*CAP
1 *240:A1 0.000134892
2 *228:B1 0
3 *223:A_N 0.00012372
4 *221:X 0.000240451
5 *45:16 0.000412875
6 *45:10 0.000664498
7 *223:A_N *223:B 9.84794e-05
8 *223:A_N *228:A2 5.67058e-05
9 *240:A1 *237:B 0
10 *240:A1 *58:10 3.31683e-05
11 *45:10 *237:B 0
12 *45:16 *57:20 0.000358425
13 *36:8 *45:10 7.69256e-06
14 *36:12 *45:10 0.000227208
*RES
1 *221:X *45:10 43.1371 
2 *45:10 *45:16 21.4836 
3 *45:16 *223:A_N 25.5479 
4 *45:16 *228:B1 23 
5 *45:10 *240:A1 40.2579 
*END

*D_NET *46 0.000779501
*CONN
*I *228:A1 I *D sky130_fd_sc_hd__a21oi_1
*I *223:B I *D sky130_fd_sc_hd__and2b_1
*I *222:X O *D sky130_fd_sc_hd__a21o_1
*CAP
1 *228:A1 3.47294e-05
2 *223:B 0.000111699
3 *222:X 6.90834e-05
4 *46:8 0.000215511
5 *223:B *228:A2 7.42621e-05
6 *228:A1 *61:10 6.16531e-05
7 *46:8 *50:23 0
8 *46:8 *61:10 0.000114083
9 *223:A_N *223:B 9.84794e-05
*RES
1 *222:X *46:8 39.5536 
2 *46:8 *223:B 40.5271 
3 *46:8 *228:A1 38.8493 
*END

*D_NET *47 0.000285478
*CONN
*I *227:A I *D sky130_fd_sc_hd__xor2_1
*I *223:X O *D sky130_fd_sc_hd__and2b_1
*CAP
1 *227:A 9.08367e-05
2 *223:X 9.08367e-05
3 *227:A *227:B 3.52815e-05
4 *227:A *228:A2 6.8523e-05
*RES
1 *223:X *227:A 48.0714 
*END

*D_NET *48 0.00596897
*CONN
*I *239:A2 I *D sky130_fd_sc_hd__a31o_1
*I *226:B I *D sky130_fd_sc_hd__and3_1
*I *247:B1 I *D sky130_fd_sc_hd__a21oi_1
*I *224:X O *D sky130_fd_sc_hd__a31o_1
*CAP
1 *239:A2 0.000140992
2 *226:B 0.000213693
3 *247:B1 7.37049e-05
4 *224:X 0.000327353
5 *48:18 0.000355721
6 *48:16 0.000209315
7 *48:14 0.0014216
8 *48:10 0.00174895
9 *226:B *67:8 0.000127502
10 *239:A2 *239:A3 1.69668e-05
11 *239:A2 *239:B1 9.91798e-05
12 *239:A2 *50:23 0
13 *239:A2 *61:10 2.93747e-05
14 *247:B1 *239:A3 2.64506e-05
15 *247:B1 *49:10 1.19692e-05
16 *48:10 *77:25 0.000142418
17 *48:10 *78:30 0
18 *48:10 *79:52 1.5769e-05
19 *48:14 *229:B 0.00026338
20 *48:14 *239:B1 0.000397596
21 *48:14 *81:55 5.12254e-05
22 *48:18 *239:A3 2.26489e-05
23 *211:A *48:14 7.42621e-05
24 *216:A_N *48:10 5.41288e-05
25 *28:18 *48:14 0.000109147
26 *34:23 *48:14 3.56215e-05
27 *39:10 *48:10 0
28 *44:8 *239:A2 0
29 *44:8 *247:B1 0
*RES
1 *224:X *48:10 43.5929 
2 *48:10 *48:14 35.6314 
3 *48:14 *48:16 15 
4 *48:16 *48:18 1.20143 