*SPEF "ieee 1481-1999"
*DESIGN "mult8_2bits_1op_e169662"
*DATE "19:12:28 Tuesday September 16, 2025"
*VENDOR "The OpenROAD Project"
*PROGRAM "OpenROAD"
*VERSION "edf00dff99f6c40d67a30c0e22a8191c5d2ed9d6"
*DESIGN_FLOW "NAME_SCOPE LOCAL" "PIN_CAP NONE"
*DIVIDER /
*DELIMITER :
*BUS_DELIMITER []
*T_UNIT 1 NS
*C_UNIT 1 PF
*R_UNIT 1 OHM
*L_UNIT 1 HENRY

*NAME_MAP
*1 A[0]
*2 A[1]
*3 A[2]
*4 A[3]
*5 A[4]
*6 A[5]
*7 A[6]
*8 A[7]
*9 B[0]
*10 B[1]
*11 B[2]
*12 B[3]
*13 B[4]
*14 B[5]
*15 B[6]
*16 B[7]
*17 P[0]
*18 P[10]
*19 P[11]
*20 P[12]
*21 P[13]
*22 P[14]
*23 P[15]
*24 P[1]
*25 P[2]
*26 P[3]
*27 P[4]
*28 P[5]
*29 P[6]
*30 P[7]
*31 P[8]
*32 P[9]
*35 _000_
*36 _001_
*37 _002_
*38 _003_
*39 _004_
*40 _005_
*41 _006_
*42 _007_
*43 _008_
*44 _009_
*45 _010_
*46 _011_
*47 _012_
*48 _013_
*49 _014_
*50 _015_
*51 _016_
*52 _017_
*53 _018_
*54 _019_
*55 _020_
*56 _021_
*57 _022_
*58 _023_
*59 _024_
*60 _025_
*61 _026_
*62 _027_
*63 _028_
*64 _029_
*65 _030_
*66 _031_
*67 _032_
*68 _033_
*69 _034_
*70 _035_
*71 _036_
*72 _037_
*73 _038_
*74 _039_
*75 _040_
*76 _041_
*77 _042_
*78 _043_
*79 _044_
*80 _045_
*81 _046_
*82 _047_
*83 _048_
*84 _049_
*85 _050_
*86 _051_
*87 _052_
*88 _053_
*89 _054_
*90 _055_
*91 _056_
*92 _057_
*93 _058_
*94 _059_
*95 _060_
*96 _061_
*97 _062_
*98 _063_
*99 _064_
*100 _065_
*101 _066_
*102 _067_
*103 _068_
*104 _069_
*105 _070_
*106 _071_
*107 _072_
*108 _073_
*109 _074_
*110 _075_
*111 _076_
*112 _077_
*113 _078_
*114 _079_
*115 _080_
*116 _081_
*117 _082_
*118 _083_
*119 _084_
*120 _085_
*121 _086_
*122 _087_
*123 _088_
*124 _089_
*125 _090_
*126 _091_
*127 _092_
*128 _093_
*129 _094_
*130 _095_
*131 _096_
*132 _097_
*133 _098_
*134 _099_
*135 _100_
*136 _101_
*137 _102_
*138 _103_
*139 _104_
*140 _105_
*141 _106_
*142 _107_
*143 _108_
*144 _109_
*145 _110_
*146 _111_
*147 _112_
*148 _113_
*149 _114_
*150 _115_
*151 _116_
*152 _117_
*153 _118_
*154 _119_
*155 _120_
*156 _121_
*157 _122_
*158 _123_
*159 _124_
*160 _125_
*161 _126_
*162 _127_
*163 _128_
*164 _129_
*165 _130_
*166 _131_
*167 _132_
*168 _133_
*169 _134_
*170 _135_
*171 _136_
*172 _137_
*173 _138_
*174 _139_
*175 _140_
*176 _141_
*177 _142_
*178 _143_
*179 _144_
*180 _145_
*181 _146_
*182 _147_
*183 _148_
*184 _149_
*185 _150_
*186 _151_
*187 _152_
*188 _153_
*189 _154_
*190 _155_
*191 _156_
*192 _157_
*193 _158_
*194 _159_
*195 _160_
*196 _161_
*197 _162_
*198 _163_
*199 _164_
*200 _165_
*201 _166_
*202 _167_
*203 _168_
*204 _169_
*205 _170_
*206 _171_
*207 _172_
*208 _173_
*209 _174_
*210 _175_
*211 _176_
*212 _177_
*213 _178_
*214 _179_
*215 _180_
*216 _181_
*217 _182_
*218 _183_
*219 _184_
*220 _185_
*221 _186_
*222 _187_
*223 _188_
*224 _189_
*225 _190_
*226 _191_
*227 _192_
*228 _193_
*229 _194_
*230 _195_
*231 _196_
*232 _197_
*233 _198_
*234 _199_
*235 _200_
*236 _201_
*237 _202_
*238 _203_
*239 _204_
*240 _205_
*241 _206_
*242 _207_
*243 _208_
*244 _209_
*245 _210_
*246 _211_
*247 _212_
*248 _213_
*249 _214_
*250 _215_
*251 _216_
*252 _217_
*253 _218_
*254 _219_
*255 _220_
*256 _221_
*257 _222_
*258 _223_
*259 _224_
*260 _225_
*261 _226_
*262 _227_
*263 _228_
*264 _229_
*265 _230_
*266 _231_
*267 _232_
*268 _233_
*269 _234_
*270 _235_
*271 _236_
*272 _237_
*273 _238_
*274 _239_
*275 _240_
*276 _241_
*277 _242_
*278 _243_
*279 _244_
*280 _245_
*281 _246_
*282 _247_
*283 _248_
*284 _249_
*285 _250_
*286 _251_
*287 _252_
*288 _253_
*289 _254_
*290 _255_
*291 _256_
*292 _257_
*293 _258_
*294 _259_
*295 _260_
*296 _261_
*297 _262_
*298 _263_
*299 _264_
*300 _265_
*301 _266_
*302 _267_
*303 _268_
*304 _269_
*305 _270_
*306 _271_
*307 _272_
*308 _273_
*309 _274_
*310 _275_
*311 net1
*312 net10
*313 net11
*314 net12
*315 net13
*316 net14
*317 net15
*318 net16
*319 net17
*320 net18
*321 net19
*322 net2
*323 net20
*324 net21
*325 net22
*326 net23
*327 net24
*328 net25
*329 net26
*330 net27
*331 net28
*332 net29
*333 net3
*334 net30
*335 net31
*336 net32
*337 net33
*338 net34
*339 net35
*340 net36
*341 net37
*342 net38
*343 net39
*344 net4
*345 net40
*346 net41
*347 net42
*348 net43
*349 net44
*350 net45
*351 net46
*352 net47
*353 net48
*354 net49
*355 net5
*356 net50
*357 net51
*358 net52
*359 net53
*360 net54
*361 net55
*362 net56
*363 net57
*364 net58
*365 net59
*366 net6
*367 net60
*368 net61
*369 net62
*370 net63
*371 net64
*372 net65
*373 net66
*374 net67
*375 net68
*376 net69
*377 net7
*378 net70
*379 net71
*380 net72
*381 net73
*382 net8
*383 net86
*384 net87
*385 net88
*386 net89
*387 net9
*388 net90
*389 net91
*390 net92
*391 net93
*392 net94
*393 net95
*394 net97
*395 FILLER_0_109
*396 FILLER_0_113
*397 FILLER_0_124
*398 FILLER_0_136
*399 FILLER_0_141
*400 FILLER_0_15
*401 FILLER_0_153
*402 FILLER_0_161
*403 FILLER_0_169
*404 FILLER_0_181
*405 FILLER_0_189
*406 FILLER_0_197
*407 FILLER_0_203
*408 FILLER_0_215
*409 FILLER_0_223
*410 FILLER_0_225
*411 FILLER_0_237
*412 FILLER_0_249
*413 FILLER_0_253
*414 FILLER_0_261
*415 FILLER_0_27
*416 FILLER_0_271
*417 FILLER_0_279
*418 FILLER_0_281
*419 FILLER_0_289
*420 FILLER_0_29
*421 FILLER_0_3
*422 FILLER_0_301
*423 FILLER_0_307
*424 FILLER_0_309
*425 FILLER_0_321
*426 FILLER_0_333
*427 FILLER_0_337
*428 FILLER_0_349
*429 FILLER_0_361
*430 FILLER_0_365
*431 FILLER_0_377
*432 FILLER_0_389
*433 FILLER_0_393
*434 FILLER_0_405
*435 FILLER_0_41
*436 FILLER_0_53
*437 FILLER_0_57
*438 FILLER_0_69
*439 FILLER_0_81
*440 FILLER_0_85
*441 FILLER_0_97
*442 FILLER_10_109
*443 FILLER_10_121
*444 FILLER_10_133
*445 FILLER_10_139
*446 FILLER_10_141
*447 FILLER_10_15
*448 FILLER_10_153
*449 FILLER_10_165
*450 FILLER_10_177
*451 FILLER_10_189
*452 FILLER_10_195
*453 FILLER_10_197
*454 FILLER_10_209
*455 FILLER_10_221
*456 FILLER_10_233
*457 FILLER_10_245
*458 FILLER_10_251
*459 FILLER_10_253
*460 FILLER_10_265
*461 FILLER_10_27
*462 FILLER_10_277
*463 FILLER_10_289
*464 FILLER_10_29
*465 FILLER_10_3
*466 FILLER_10_301
*467 FILLER_10_307
*468 FILLER_10_309
*469 FILLER_10_321
*470 FILLER_10_333
*471 FILLER_10_345
*472 FILLER_10_357
*473 FILLER_10_363
*474 FILLER_10_365
*475 FILLER_10_377
*476 FILLER_10_389
*477 FILLER_10_401
*478 FILLER_10_41
*479 FILLER_10_53
*480 FILLER_10_65
*481 FILLER_10_77
*482 FILLER_10_83
*483 FILLER_10_85
*484 FILLER_10_97
*485 FILLER_11_105
*486 FILLER_11_111
*487 FILLER_11_113
*488 FILLER_11_125
*489 FILLER_11_137
*490 FILLER_11_149
*491 FILLER_11_15
*492 FILLER_11_161
*493 FILLER_11_167
*494 FILLER_11_169
*495 FILLER_11_181
*496 FILLER_11_193
*497 FILLER_11_205
*498 FILLER_11_217
*499 FILLER_11_223
*500 FILLER_11_225
*501 FILLER_11_237
*502 FILLER_11_249
*503 FILLER_11_261
*504 FILLER_11_27
*505 FILLER_11_273
*506 FILLER_11_279
*507 FILLER_11_281
*508 FILLER_11_293
*509 FILLER_11_3
*510 FILLER_11_305
*511 FILLER_11_317
*512 FILLER_11_329
*513 FILLER_11_335
*514 FILLER_11_337
*515 FILLER_11_349
*516 FILLER_11_361
*517 FILLER_11_373
*518 FILLER_11_385
*519 FILLER_11_39
*520 FILLER_11_391
*521 FILLER_11_393
*522 FILLER_11_405
*523 FILLER_11_51
*524 FILLER_11_55
*525 FILLER_11_57
*526 FILLER_11_69
*527 FILLER_11_81
*528 FILLER_11_93
*529 FILLER_12_109
*530 FILLER_12_121
*531 FILLER_12_133
*532 FILLER_12_139
*533 FILLER_12_141
*534 FILLER_12_15
*535 FILLER_12_153
*536 FILLER_12_165
*537 FILLER_12_177
*538 FILLER_12_189
*539 FILLER_12_195
*540 FILLER_12_197
*541 FILLER_12_209
*542 FILLER_12_221
*543 FILLER_12_233
*544 FILLER_12_245
*545 FILLER_12_251
*546 FILLER_12_253
*547 FILLER_12_265
*548 FILLER_12_27
*549 FILLER_12_277
*550 FILLER_12_289
*551 FILLER_12_29
*552 FILLER_12_3
*553 FILLER_12_301
*554 FILLER_12_307
*555 FILLER_12_309
*556 FILLER_12_321
*557 FILLER_12_333
*558 FILLER_12_345
*559 FILLER_12_357
*560 FILLER_12_363
*561 FILLER_12_365
*562 FILLER_12_377
*563 FILLER_12_389
*564 FILLER_12_401
*565 FILLER_12_41
*566 FILLER_12_53
*567 FILLER_12_65
*568 FILLER_12_77
*569 FILLER_12_83
*570 FILLER_12_85
*571 FILLER_12_97
*572 FILLER_13_105
*573 FILLER_13_111
*574 FILLER_13_113
*575 FILLER_13_125
*576 FILLER_13_137
*577 FILLER_13_149
*578 FILLER_13_15
*579 FILLER_13_161
*580 FILLER_13_167
*581 FILLER_13_169
*582 FILLER_13_181
*583 FILLER_13_193
*584 FILLER_13_205
*585 FILLER_13_217
*586 FILLER_13_223
*587 FILLER_13_225
*588 FILLER_13_237
*589 FILLER_13_249
*590 FILLER_13_261
*591 FILLER_13_27
*592 FILLER_13_273
*593 FILLER_13_279
*594 FILLER_13_281
*595 FILLER_13_293
*596 FILLER_13_3
*597 FILLER_13_305
*598 FILLER_13_317
*599 FILLER_13_329
*600 FILLER_13_335
*601 FILLER_13_337
*602 FILLER_13_349
*603 FILLER_13_361
*604 FILLER_13_373
*605 FILLER_13_385
*606 FILLER_13_39
*607 FILLER_13_391
*608 FILLER_13_393
*609 FILLER_13_405
*610 FILLER_13_51
*611 FILLER_13_55
*612 FILLER_13_57
*613 FILLER_13_69
*614 FILLER_13_81
*615 FILLER_13_93
*616 FILLER_14_109
*617 FILLER_14_121
*618 FILLER_14_133
*619 FILLER_14_139
*620 FILLER_14_141
*621 FILLER_14_15
*622 FILLER_14_153
*623 FILLER_14_165
*624 FILLER_14_177
*625 FILLER_14_189
*626 FILLER_14_195
*627 FILLER_14_197
*628 FILLER_14_209
*629 FILLER_14_221
*630 FILLER_14_233
*631 FILLER_14_245
*632 FILLER_14_251
*633 FILLER_14_253
*634 FILLER_14_265
*635 FILLER_14_27
*636 FILLER_14_277
*637 FILLER_14_289
*638 FILLER_14_29
*639 FILLER_14_3
*640 FILLER_14_301
*641 FILLER_14_307
*642 FILLER_14_309
*643 FILLER_14_321
*644 FILLER_14_333
*645 FILLER_14_345
*646 FILLER_14_357
*647 FILLER_14_363
*648 FILLER_14_365
*649 FILLER_14_377
*650 FILLER_14_389
*651 FILLER_14_401
*652 FILLER_14_41
*653 FILLER_14_53
*654 FILLER_14_65
*655 FILLER_14_77
*656 FILLER_14_83
*657 FILLER_14_85
*658 FILLER_14_97
*659 FILLER_15_105
*660 FILLER_15_111
*661 FILLER_15_113
*662 FILLER_15_125
*663 FILLER_15_137
*664 FILLER_15_149
*665 FILLER_15_15
*666 FILLER_15_161
*667 FILLER_15_167
*668 FILLER_15_169
*669 FILLER_15_181
*670 FILLER_15_193
*671 FILLER_15_205
*672 FILLER_15_217
*673 FILLER_15_223
*674 FILLER_15_225
*675 FILLER_15_237
*676 FILLER_15_249
*677 FILLER_15_261
*678 FILLER_15_27
*679 FILLER_15_273
*680 FILLER_15_279
*681 FILLER_15_281
*682 FILLER_15_293
*683 FILLER_15_3
*684 FILLER_15_305
*685 FILLER_15_317
*686 FILLER_15_329
*687 FILLER_15_335
*688 FILLER_15_337
*689 FILLER_15_349
*690 FILLER_15_361
*691 FILLER_15_373
*692 FILLER_15_385
*693 FILLER_15_39
*694 FILLER_15_391
*695 FILLER_15_393
*696 FILLER_15_405
*697 FILLER_15_51
*698 FILLER_15_55
*699 FILLER_15_57
*700 FILLER_15_69
*701 FILLER_15_81
*702 FILLER_15_93
*703 FILLER_16_109
*704 FILLER_16_121
*705 FILLER_16_133
*706 FILLER_16_139
*707 FILLER_16_141
*708 FILLER_16_15
*709 FILLER_16_153
*710 FILLER_16_165
*711 FILLER_16_173
*712 FILLER_16_181
*713 FILLER_16_193
*714 FILLER_16_197
*715 FILLER_16_209
*716 FILLER_16_221
*717 FILLER_16_233
*718 FILLER_16_245
*719 FILLER_16_251
*720 FILLER_16_253
*721 FILLER_16_265
*722 FILLER_16_27
*723 FILLER_16_277
*724 FILLER_16_289
*725 FILLER_16_29
*726 FILLER_16_3
*727 FILLER_16_301
*728 FILLER_16_307
*729 FILLER_16_309
*730 FILLER_16_321
*731 FILLER_16_333
*732 FILLER_16_345
*733 FILLER_16_357
*734 FILLER_16_363
*735 FILLER_16_365
*736 FILLER_16_377
*737 FILLER_16_389
*738 FILLER_16_401
*739 FILLER_16_41
*740 FILLER_16_53
*741 FILLER_16_65
*742 FILLER_16_77
*743 FILLER_16_83
*744 FILLER_16_85
*745 FILLER_16_97
*746 FILLER_17_105
*747 FILLER_17_111
*748 FILLER_17_113
*749 FILLER_17_129
*750 FILLER_17_141
*751 FILLER_17_15
*752 FILLER_17_153
*753 FILLER_17_165
*754 FILLER_17_179
*755 FILLER_17_184
*756 FILLER_17_196
*757 FILLER_17_208
*758 FILLER_17_220
*759 FILLER_17_225
*760 FILLER_17_237
*761 FILLER_17_249
*762 FILLER_17_261
*763 FILLER_17_27
*764 FILLER_17_273
*765 FILLER_17_279
*766 FILLER_17_281
*767 FILLER_17_293
*768 FILLER_17_3
*769 FILLER_17_305
*770 FILLER_17_317
*771 FILLER_17_329
*772 FILLER_17_335
*773 FILLER_17_337
*774 FILLER_17_349
*775 FILLER_17_361
*776 FILLER_17_373
*777 FILLER_17_385
*778 FILLER_17_39
*779 FILLER_17_391
*780 FILLER_17_393
*781 FILLER_17_405
*782 FILLER_17_51
*783 FILLER_17_55
*784 FILLER_17_57
*785 FILLER_17_69
*786 FILLER_17_81
*787 FILLER_17_93
*788 FILLER_18_109
*789 FILLER_18_121
*790 FILLER_18_133
*791 FILLER_18_139
*792 FILLER_18_141
*793 FILLER_18_15
*794 FILLER_18_153
*795 FILLER_18_165
*796 FILLER_18_175
*797 FILLER_18_187
*798 FILLER_18_195
*799 FILLER_18_197
*800 FILLER_18_209
*801 FILLER_18_221
*802 FILLER_18_233
*803 FILLER_18_253
*804 FILLER_18_265
*805 FILLER_18_27
*806 FILLER_18_277
*807 FILLER_18_289
*808 FILLER_18_29
*809 FILLER_18_3
*810 FILLER_18_301
*811 FILLER_18_307
*812 FILLER_18_309
*813 FILLER_18_321
*814 FILLER_18_333
*815 FILLER_18_345
*816 FILLER_18_357
*817 FILLER_18_363
*818 FILLER_18_365
*819 FILLER_18_377
*820 FILLER_18_389
*821 FILLER_18_401
*822 FILLER_18_41
*823 FILLER_18_53
*824 FILLER_18_65
*825 FILLER_18_77
*826 FILLER_18_83
*827 FILLER_18_85
*828 FILLER_18_97
*829 FILLER_19_100
*830 FILLER_19_113
*831 FILLER_19_125
*832 FILLER_19_131
*833 FILLER_19_15
*834 FILLER_19_152
*835 FILLER_19_164
*836 FILLER_19_169
*837 FILLER_19_181
*838 FILLER_19_193
*839 FILLER_19_205
*840 FILLER_19_217
*841 FILLER_19_223
*842 FILLER_19_225
*843 FILLER_19_231
*844 FILLER_19_235
*845 FILLER_19_253
*846 FILLER_19_265
*847 FILLER_19_27
*848 FILLER_19_277
*849 FILLER_19_281
*850 FILLER_19_293
*851 FILLER_19_3
*852 FILLER_19_305
*853 FILLER_19_317
*854 FILLER_19_329
*855 FILLER_19_335
*856 FILLER_19_337
*857 FILLER_19_349
*858 FILLER_19_361
*859 FILLER_19_373
*860 FILLER_19_385
*861 FILLER_19_39
*862 FILLER_19_391
*863 FILLER_19_393
*864 FILLER_19_397
*865 FILLER_19_51
*866 FILLER_19_55
*867 FILLER_19_57
*868 FILLER_19_69
*869 FILLER_19_88
*870 FILLER_1_105
*871 FILLER_1_111
*872 FILLER_1_113
*873 FILLER_1_125
*874 FILLER_1_137
*875 FILLER_1_149
*876 FILLER_1_15
*877 FILLER_1_161
*878 FILLER_1_167
*879 FILLER_1_169
*880 FILLER_1_181
*881 FILLER_1_193
*882 FILLER_1_205
*883 FILLER_1_217
*884 FILLER_1_223
*885 FILLER_1_225
*886 FILLER_1_237
*887 FILLER_1_249
*888 FILLER_1_261
*889 FILLER_1_27
*890 FILLER_1_273
*891 FILLER_1_279
*892 FILLER_1_281
*893 FILLER_1_293
*894 FILLER_1_3
*895 FILLER_1_305
*896 FILLER_1_317
*897 FILLER_1_329
*898 FILLER_1_335
*899 FILLER_1_337
*900 FILLER_1_349
*901 FILLER_1_361
*902 FILLER_1_373
*903 FILLER_1_385
*904 FILLER_1_39
*905 FILLER_1_391
*906 FILLER_1_393
*907 FILLER_1_405
*908 FILLER_1_51
*909 FILLER_1_55
*910 FILLER_1_57
*911 FILLER_1_69
*912 FILLER_1_81
*913 FILLER_1_93
*914 FILLER_20_114
*915 FILLER_20_126
*916 FILLER_20_138
*917 FILLER_20_15
*918 FILLER_20_151
*919 FILLER_20_163
*920 FILLER_20_175
*921 FILLER_20_187
*922 FILLER_20_195
*923 FILLER_20_197
*924 FILLER_20_209
*925 FILLER_20_221
*926 FILLER_20_242
*927 FILLER_20_250
*928 FILLER_20_260
*929 FILLER_20_268
*930 FILLER_20_27
*931 FILLER_20_272
*932 FILLER_20_284
*933 FILLER_20_29
*934 FILLER_20_296
*935 FILLER_20_3
*936 FILLER_20_309
*937 FILLER_20_321
*938 FILLER_20_333
*939 FILLER_20_345
*940 FILLER_20_357
*941 FILLER_20_363
*942 FILLER_20_365
*943 FILLER_20_377
*944 FILLER_20_389
*945 FILLER_20_401
*946 FILLER_20_41
*947 FILLER_20_53
*948 FILLER_20_65
*949 FILLER_20_74
*950 FILLER_20_82
*951 FILLER_20_85
*952 FILLER_20_97
*953 FILLER_21_111
*954 FILLER_21_113
*955 FILLER_21_125
*956 FILLER_21_137
*957 FILLER_21_149
*958 FILLER_21_15
*959 FILLER_21_161
*960 FILLER_21_167
*961 FILLER_21_169
*962 FILLER_21_181
*963 FILLER_21_193
*964 FILLER_21_205
*965 FILLER_21_209
*966 FILLER_21_216
*967 FILLER_21_225
*968 FILLER_21_237
*969 FILLER_21_249
*970 FILLER_21_267
*971 FILLER_21_27
*972 FILLER_21_279
*973 FILLER_21_281
*974 FILLER_21_293
*975 FILLER_21_3
*976 FILLER_21_305
*977 FILLER_21_317
*978 FILLER_21_329
*979 FILLER_21_335
*980 FILLER_21_337
*981 FILLER_21_349
*982 FILLER_21_361
*983 FILLER_21_373
*984 FILLER_21_385
*985 FILLER_21_39
*986 FILLER_21_391
*987 FILLER_21_393
*988 FILLER_21_397
*989 FILLER_21_51
*990 FILLER_21_55
*991 FILLER_21_57
*992 FILLER_21_69
*993 FILLER_21_87
*994 FILLER_21_99
*995 FILLER_22_100
*996 FILLER_22_112
*997 FILLER_22_124
*998 FILLER_22_136
*999 FILLER_22_141
*1000 FILLER_22_153
*1001 FILLER_22_165
*1002 FILLER_22_170
*1003 FILLER_22_182
*1004 FILLER_22_19
*1005 FILLER_22_194
*1006 FILLER_22_197
*1007 FILLER_22_201
*1008 FILLER_22_215
*1009 FILLER_22_229
*1010 FILLER_22_241
*1011 FILLER_22_249
*1012 FILLER_22_253
*1013 FILLER_22_265
*1014 FILLER_22_27
*1015 FILLER_22_277
*1016 FILLER_22_289
*1017 FILLER_22_29
*1018 FILLER_22_301
*1019 FILLER_22_307
*1020 FILLER_22_309
*1021 FILLER_22_321
*1022 FILLER_22_333
*1023 FILLER_22_345
*1024 FILLER_22_357
*1025 FILLER_22_363
*1026 FILLER_22_365
*1027 FILLER_22_377
*1028 FILLER_22_389
*1029 FILLER_22_401
*1030 FILLER_22_47
*1031 FILLER_22_7
*1032 FILLER_22_74
*1033 FILLER_22_82
*1034 FILLER_23_113
*1035 FILLER_23_138
*1036 FILLER_23_146
*1037 FILLER_23_15
*1038 FILLER_23_163
*1039 FILLER_23_169
*1040 FILLER_23_177
*1041 FILLER_23_187
*1042 FILLER_23_199
*1043 FILLER_23_21
*1044 FILLER_23_211
*1045 FILLER_23_223
*1046 FILLER_23_225
*1047 FILLER_23_237
*1048 FILLER_23_25
*1049 FILLER_23_256
*1050 FILLER_23_268
*1051 FILLER_23_281
*1052 FILLER_23_290
*1053 FILLER_23_3
*1054 FILLER_23_302
*1055 FILLER_23_314
*1056 FILLER_23_326
*1057 FILLER_23_33
*1058 FILLER_23_334
*1059 FILLER_23_337
*1060 FILLER_23_349
*1061 FILLER_23_361
*1062 FILLER_23_373
*1063 FILLER_23_385
*1064 FILLER_23_391
*1065 FILLER_23_393
*1066 FILLER_23_405
*1067 FILLER_23_42
*1068 FILLER_23_54
*1069 FILLER_23_57
*1070 FILLER_23_76
*1071 FILLER_23_84
*1072 FILLER_24_106
*1073 FILLER_24_110
*1074 FILLER_24_116
*1075 FILLER_24_128
*1076 FILLER_24_141
*1077 FILLER_24_149
*1078 FILLER_24_167
*1079 FILLER_24_175
*1080 FILLER_24_187
*1081 FILLER_24_195
*1082 FILLER_24_197
*1083 FILLER_24_20
*1084 FILLER_24_201
*1085 FILLER_24_205
*1086 FILLER_24_209
*1087 FILLER_24_216
*1088 FILLER_24_228
*1089 FILLER_24_240
*1090 FILLER_24_253
*1091 FILLER_24_261
*1092 FILLER_24_278
*1093 FILLER_24_290
*1094 FILLER_24_302
*1095 FILLER_24_309
*1096 FILLER_24_321
*1097 FILLER_24_333
*1098 FILLER_24_345
*1099 FILLER_24_357
*1100 FILLER_24_363
*1101 FILLER_24_365
*1102 FILLER_24_37
*1103 FILLER_24_377
*1104 FILLER_24_389
*1105 FILLER_24_401
*1106 FILLER_24_49
*1107 FILLER_24_55
*1108 FILLER_24_60
*1109 FILLER_24_7
*1110 FILLER_24_72
*1111 FILLER_24_85
*1112 FILLER_24_89
*1113 FILLER_24_94
*1114 FILLER_25_106
*1115 FILLER_25_113
*1116 FILLER_25_125
*1117 FILLER_25_137
*1118 FILLER_25_149
*1119 FILLER_25_155
*1120 FILLER_25_167
*1121 FILLER_25_178
*1122 FILLER_25_190
*1123 FILLER_25_208
*1124 FILLER_25_220
*1125 FILLER_25_225
*1126 FILLER_25_237
*1127 FILLER_25_249
*1128 FILLER_25_261
*1129 FILLER_25_269
*1130 FILLER_25_274
*1131 FILLER_25_281
*1132 FILLER_25_297
*1133 FILLER_25_309
*1134 FILLER_25_321
*1135 FILLER_25_333
*1136 FILLER_25_337
*1137 FILLER_25_349
*1138 FILLER_25_36
*1139 FILLER_25_361
*1140 FILLER_25_373
*1141 FILLER_25_385
*1142 FILLER_25_391
*1143 FILLER_25_393
*1144 FILLER_25_405
*1145 FILLER_25_48
*1146 FILLER_25_57
*1147 FILLER_25_69
*1148 FILLER_25_7
*1149 FILLER_25_81
*1150 FILLER_25_93
*1151 FILLER_25_97
*1152 FILLER_26_119
*1153 FILLER_26_131
*1154 FILLER_26_139
*1155 FILLER_26_141
*1156 FILLER_26_164
*1157 FILLER_26_173
*1158 FILLER_26_185
*1159 FILLER_26_193
*1160 FILLER_26_197
*1161 FILLER_26_209
*1162 FILLER_26_221
*1163 FILLER_26_233
*1164 FILLER_26_245
*1165 FILLER_26_251
*1166 FILLER_26_253
*1167 FILLER_26_265
*1168 FILLER_26_284
*1169 FILLER_26_296
*1170 FILLER_26_309
*1171 FILLER_26_321
*1172 FILLER_26_333
*1173 FILLER_26_345
*1174 FILLER_26_357
*1175 FILLER_26_363
*1176 FILLER_26_365
*1177 FILLER_26_377
*1178 FILLER_26_389
*1179 FILLER_26_39
*1180 FILLER_26_401
*1181 FILLER_26_51
*1182 FILLER_26_63
*1183 FILLER_26_7
*1184 FILLER_26_75
*1185 FILLER_26_83
*1186 FILLER_26_85
*1187 FILLER_26_97
*1188 FILLER_27_105
*1189 FILLER_27_111
*1190 FILLER_27_113
*1191 FILLER_27_125
*1192 FILLER_27_137
*1193 FILLER_27_149
*1194 FILLER_27_15
*1195 FILLER_27_161
*1196 FILLER_27_167
*1197 FILLER_27_169
*1198 FILLER_27_181
*1199 FILLER_27_193
*1200 FILLER_27_205
*1201 FILLER_27_217
*1202 FILLER_27_22
*1203 FILLER_27_223
*1204 FILLER_27_225
*1205 FILLER_27_237
*1206 FILLER_27_249
*1207 FILLER_27_261
*1208 FILLER_27_273
*1209 FILLER_27_279
*1210 FILLER_27_281
*1211 FILLER_27_293
*1212 FILLER_27_305
*1213 FILLER_27_317
*1214 FILLER_27_329
*1215 FILLER_27_335
*1216 FILLER_27_337
*1217 FILLER_27_349
*1218 FILLER_27_35
*1219 FILLER_27_361
*1220 FILLER_27_373
*1221 FILLER_27_385
*1222 FILLER_27_391
*1223 FILLER_27_393
*1224 FILLER_27_405
*1225 FILLER_27_47
*1226 FILLER_27_55
*1227 FILLER_27_57
*1228 FILLER_27_69
*1229 FILLER_27_7
*1230 FILLER_27_81
*1231 FILLER_27_93
*1232 FILLER_28_107
*1233 FILLER_28_118
*1234 FILLER_28_130
*1235 FILLER_28_138
*1236 FILLER_28_141
*1237 FILLER_28_15
*1238 FILLER_28_153
*1239 FILLER_28_165
*1240 FILLER_28_177
*1241 FILLER_28_189
*1242 FILLER_28_195
*1243 FILLER_28_197
*1244 FILLER_28_209
*1245 FILLER_28_221
*1246 FILLER_28_233
*1247 FILLER_28_245
*1248 FILLER_28_251
*1249 FILLER_28_260
*1250 FILLER_28_268
*1251 FILLER_28_27
*1252 FILLER_28_274
*1253 FILLER_28_286
*1254 FILLER_28_29
*1255 FILLER_28_298
*1256 FILLER_28_3
*1257 FILLER_28_306
*1258 FILLER_28_309
*1259 FILLER_28_321
*1260 FILLER_28_333
*1261 FILLER_28_345
*1262 FILLER_28_357
*1263 FILLER_28_363
*1264 FILLER_28_365
*1265 FILLER_28_377
*1266 FILLER_28_389
*1267 FILLER_28_401
*1268 FILLER_28_41
*1269 FILLER_28_53
*1270 FILLER_28_59
*1271 FILLER_28_76
*1272 FILLER_28_85
*1273 FILLER_28_97
*1274 FILLER_29_110
*1275 FILLER_29_117
*1276 FILLER_29_129
*1277 FILLER_29_141
*1278 FILLER_29_153
*1279 FILLER_29_165
*1280 FILLER_29_177
*1281 FILLER_29_189
*1282 FILLER_29_19
*1283 FILLER_29_201
*1284 FILLER_29_214
*1285 FILLER_29_222
*1286 FILLER_29_230
*1287 FILLER_29_238
*1288 FILLER_29_260
*1289 FILLER_29_272
*1290 FILLER_29_281
*1291 FILLER_29_293
*1292 FILLER_29_305
*1293 FILLER_29_31
*1294 FILLER_29_317
*1295 FILLER_29_329
*1296 FILLER_29_335
*1297 FILLER_29_337
*1298 FILLER_29_349
*1299 FILLER_29_361
*1300 FILLER_29_373
*1301 FILLER_29_385
*1302 FILLER_29_391
*1303 FILLER_29_393
*1304 FILLER_29_405
*1305 FILLER_29_43
*1306 FILLER_29_55
*1307 FILLER_29_57
*1308 FILLER_29_69
*1309 FILLER_29_7
*1310 FILLER_2_109
*1311 FILLER_2_121
*1312 FILLER_2_133
*1313 FILLER_2_139
*1314 FILLER_2_141
*1315 FILLER_2_15
*1316 FILLER_2_153
*1317 FILLER_2_165
*1318 FILLER_2_177
*1319 FILLER_2_189
*1320 FILLER_2_195
*1321 FILLER_2_197
*1322 FILLER_2_209
*1323 FILLER_2_221
*1324 FILLER_2_233
*1325 FILLER_2_245
*1326 FILLER_2_251
*1327 FILLER_2_253
*1328 FILLER_2_265
*1329 FILLER_2_27
*1330 FILLER_2_277
*1331 FILLER_2_289
*1332 FILLER_2_29
*1333 FILLER_2_3
*1334 FILLER_2_301
*1335 FILLER_2_307
*1336 FILLER_2_309
*1337 FILLER_2_321
*1338 FILLER_2_333
*1339 FILLER_2_345
*1340 FILLER_2_357
*1341 FILLER_2_363
*1342 FILLER_2_365
*1343 FILLER_2_377
*1344 FILLER_2_389
*1345 FILLER_2_401
*1346 FILLER_2_41
*1347 FILLER_2_53
*1348 FILLER_2_65
*1349 FILLER_2_77
*1350 FILLER_2_83
*1351 FILLER_2_85
*1352 FILLER_2_97
*1353 FILLER_30_123
*1354 FILLER_30_129
*1355 FILLER_30_137
*1356 FILLER_30_141
*1357 FILLER_30_149
*1358 FILLER_30_159
*1359 FILLER_30_172
*1360 FILLER_30_180
*1361 FILLER_30_192
*1362 FILLER_30_197
*1363 FILLER_30_209
*1364 FILLER_30_217
*1365 FILLER_30_223
*1366 FILLER_30_238
*1367 FILLER_30_246
*1368 FILLER_30_253
*1369 FILLER_30_261
*1370 FILLER_30_272
*1371 FILLER_30_284
*1372 FILLER_30_29
*1373 FILLER_30_296
*1374 FILLER_30_309
*1375 FILLER_30_321
*1376 FILLER_30_333
*1377 FILLER_30_345
*1378 FILLER_30_357
*1379 FILLER_30_363
*1380 FILLER_30_365
*1381 FILLER_30_377
*1382 FILLER_30_389
*1383 FILLER_30_401
*1384 FILLER_30_41
*1385 FILLER_30_49
*1386 FILLER_30_7
*1387 FILLER_30_85
*1388 FILLER_31_103
*1389 FILLER_31_111
*1390 FILLER_31_113
*1391 FILLER_31_125
*1392 FILLER_31_137
*1393 FILLER_31_149
*1394 FILLER_31_161
*1395 FILLER_31_167
*1396 FILLER_31_169
*1397 FILLER_31_181
*1398 FILLER_31_192
*1399 FILLER_31_204
*1400 FILLER_31_216
*1401 FILLER_31_225
*1402 FILLER_31_237
*1403 FILLER_31_249
*1404 FILLER_31_261
*1405 FILLER_31_267
*1406 FILLER_31_271
*1407 FILLER_31_279
*1408 FILLER_31_281
*1409 FILLER_31_293
*1410 FILLER_31_3
*1411 FILLER_31_305
*1412 FILLER_31_317
*1413 FILLER_31_329
*1414 FILLER_31_335
*1415 FILLER_31_337
*1416 FILLER_31_349
*1417 FILLER_31_361
*1418 FILLER_31_373
*1419 FILLER_31_385
*1420 FILLER_31_391
*1421 FILLER_31_393
*1422 FILLER_31_405
*1423 FILLER_31_41
*1424 FILLER_31_52
*1425 FILLER_31_57
*1426 FILLER_31_63
*1427 FILLER_31_81
*1428 FILLER_31_93
*1429 FILLER_32_109
*1430 FILLER_32_121
*1431 FILLER_32_133
*1432 FILLER_32_139
*1433 FILLER_32_141
*1434 FILLER_32_154
*1435 FILLER_32_162
*1436 FILLER_32_175
*1437 FILLER_32_179
*1438 FILLER_32_193
*1439 FILLER_32_197
*1440 FILLER_32_205
*1441 FILLER_32_211
*1442 FILLER_32_22
*1443 FILLER_32_223
*1444 FILLER_32_235
*1445 FILLER_32_247
*1446 FILLER_32_251
*1447 FILLER_32_253
*1448 FILLER_32_265
*1449 FILLER_32_277
*1450 FILLER_32_289
*1451 FILLER_32_29
*1452 FILLER_32_3
*1453 FILLER_32_301
*1454 FILLER_32_307
*1455 FILLER_32_309
*1456 FILLER_32_321
*1457 FILLER_32_333
*1458 FILLER_32_345
*1459 FILLER_32_357
*1460 FILLER_32_363
*1461 FILLER_32_365
*1462 FILLER_32_377
*1463 FILLER_32_389
*1464 FILLER_32_401
*1465 FILLER_32_41
*1466 FILLER_32_77
*1467 FILLER_32_83
*1468 FILLER_32_85
*1469 FILLER_32_97
*1470 FILLER_33_107
*1471 FILLER_33_111
*1472 FILLER_33_113
*1473 FILLER_33_125
*1474 FILLER_33_13
*1475 FILLER_33_137
*1476 FILLER_33_143
*1477 FILLER_33_148
*1478 FILLER_33_169
*1479 FILLER_33_181
*1480 FILLER_33_189
*1481 FILLER_33_198
*1482 FILLER_33_212
*1483 FILLER_33_225
*1484 FILLER_33_237
*1485 FILLER_33_249
*1486 FILLER_33_25
*1487 FILLER_33_261
*1488 FILLER_33_273
*1489 FILLER_33_279
*1490 FILLER_33_281
*1491 FILLER_33_293
*1492 FILLER_33_3
*1493 FILLER_33_305
*1494 FILLER_33_317
*1495 FILLER_33_329
*1496 FILLER_33_335
*1497 FILLER_33_337
*1498 FILLER_33_34
*1499 FILLER_33_349
*1500 FILLER_33_361
*1501 FILLER_33_373
*1502 FILLER_33_385
*1503 FILLER_33_391
*1504 FILLER_33_393
*1505 FILLER_33_405
*1506 FILLER_33_46
*1507 FILLER_33_54
*1508 FILLER_33_57
*1509 FILLER_33_63
*1510 FILLER_33_71
*1511 FILLER_33_83
*1512 FILLER_33_9
*1513 FILLER_33_95
*1514 FILLER_34_109
*1515 FILLER_34_121
*1516 FILLER_34_133
*1517 FILLER_34_139
*1518 FILLER_34_141
*1519 FILLER_34_15
*1520 FILLER_34_164
*1521 FILLER_34_176
*1522 FILLER_34_188
*1523 FILLER_34_197
*1524 FILLER_34_209
*1525 FILLER_34_229
*1526 FILLER_34_241
*1527 FILLER_34_249
*1528 FILLER_34_253
*1529 FILLER_34_265
*1530 FILLER_34_27
*1531 FILLER_34_277
*1532 FILLER_34_289
*1533 FILLER_34_29
*1534 FILLER_34_3
*1535 FILLER_34_301
*1536 FILLER_34_307
*1537 FILLER_34_309
*1538 FILLER_34_321
*1539 FILLER_34_333
*1540 FILLER_34_345
*1541 FILLER_34_357
*1542 FILLER_34_363
*1543 FILLER_34_365
*1544 FILLER_34_377
*1545 FILLER_34_389
*1546 FILLER_34_401
*1547 FILLER_34_41
*1548 FILLER_34_53
*1549 FILLER_34_65
*1550 FILLER_34_77
*1551 FILLER_34_83
*1552 FILLER_34_85
*1553 FILLER_34_97
*1554 FILLER_35_105
*1555 FILLER_35_111
*1556 FILLER_35_113
*1557 FILLER_35_125
*1558 FILLER_35_137
*1559 FILLER_35_149
*1560 FILLER_35_167
*1561 FILLER_35_169
*1562 FILLER_35_181
*1563 FILLER_35_19
*1564 FILLER_35_193
*1565 FILLER_35_205
*1566 FILLER_35_217
*1567 FILLER_35_223
*1568 FILLER_35_225
*1569 FILLER_35_233
*1570 FILLER_35_243
*1571 FILLER_35_255
*1572 FILLER_35_267
*1573 FILLER_35_276
*1574 FILLER_35_281
*1575 FILLER_35_293
*1576 FILLER_35_305
*1577 FILLER_35_31
*1578 FILLER_35_317
*1579 FILLER_35_329
*1580 FILLER_35_335
*1581 FILLER_35_337
*1582 FILLER_35_349
*1583 FILLER_35_361
*1584 FILLER_35_373
*1585 FILLER_35_385
*1586 FILLER_35_391
*1587 FILLER_35_393
*1588 FILLER_35_405
*1589 FILLER_35_43
*1590 FILLER_35_55
*1591 FILLER_35_57
*1592 FILLER_35_69
*1593 FILLER_35_7
*1594 FILLER_35_81
*1595 FILLER_35_93
*1596 FILLER_36_109
*1597 FILLER_36_126
*1598 FILLER_36_138
*1599 FILLER_36_141
*1600 FILLER_36_15
*1601 FILLER_36_153
*1602 FILLER_36_165
*1603 FILLER_36_177
*1604 FILLER_36_189
*1605 FILLER_36_195
*1606 FILLER_36_197
*1607 FILLER_36_209
*1608 FILLER_36_221
*1609 FILLER_36_227
*1610 FILLER_36_23
*1611 FILLER_36_239
*1612 FILLER_36_251
*1613 FILLER_36_253
*1614 FILLER_36_258
*1615 FILLER_36_27
*1616 FILLER_36_274
*1617 FILLER_36_286
*1618 FILLER_36_29
*1619 FILLER_36_298
*1620 FILLER_36_306
*1621 FILLER_36_309
*1622 FILLER_36_321
*1623 FILLER_36_333
*1624 FILLER_36_345
*1625 FILLER_36_357
*1626 FILLER_36_363
*1627 FILLER_36_365
*1628 FILLER_36_377
*1629 FILLER_36_389
*1630 FILLER_36_401
*1631 FILLER_36_41
*1632 FILLER_36_53
*1633 FILLER_36_65
*1634 FILLER_36_77
*1635 FILLER_36_83
*1636 FILLER_36_85
*1637 FILLER_36_97
*1638 FILLER_37_102
*1639 FILLER_37_110
*1640 FILLER_37_121
*1641 FILLER_37_133
*1642 FILLER_37_140
*1643 FILLER_37_15
*1644 FILLER_37_152
*1645 FILLER_37_164
*1646 FILLER_37_169
*1647 FILLER_37_181
*1648 FILLER_37_189
*1649 FILLER_37_204
*1650 FILLER_37_216
*1651 FILLER_37_225
*1652 FILLER_37_237
*1653 FILLER_37_249
*1654 FILLER_37_259
*1655 FILLER_37_27
*1656 FILLER_37_272
*1657 FILLER_37_281
*1658 FILLER_37_293
*1659 FILLER_37_3
*1660 FILLER_37_305
*1661 FILLER_37_317
*1662 FILLER_37_329
*1663 FILLER_37_335
*1664 FILLER_37_337
*1665 FILLER_37_349
*1666 FILLER_37_361
*1667 FILLER_37_373
*1668 FILLER_37_385
*1669 FILLER_37_39
*1670 FILLER_37_391
*1671 FILLER_37_393
*1672 FILLER_37_405
*1673 FILLER_37_54
*1674 FILLER_37_57
*1675 FILLER_37_69
*1676 FILLER_37_73
*1677 FILLER_37_82
*1678 FILLER_37_90
*1679 FILLER_38_100
*1680 FILLER_38_111
*1681 FILLER_38_123
*1682 FILLER_38_134
*1683 FILLER_38_141
*1684 FILLER_38_15
*1685 FILLER_38_153
*1686 FILLER_38_165
*1687 FILLER_38_176
*1688 FILLER_38_188
*1689 FILLER_38_207
*1690 FILLER_38_216
*1691 FILLER_38_228
*1692 FILLER_38_240
*1693 FILLER_38_253
*1694 FILLER_38_259
*1695 FILLER_38_263
*1696 FILLER_38_27
*1697 FILLER_38_275
*1698 FILLER_38_287
*1699 FILLER_38_29
*1700 FILLER_38_299
*1701 FILLER_38_3
*1702 FILLER_38_307
*1703 FILLER_38_309
*1704 FILLER_38_321
*1705 FILLER_38_333
*1706 FILLER_38_345
*1707 FILLER_38_357
*1708 FILLER_38_363
*1709 FILLER_38_365
*1710 FILLER_38_377
*1711 FILLER_38_389
*1712 FILLER_38_401
*1713 FILLER_38_41
*1714 FILLER_38_49
*1715 FILLER_38_59
*1716 FILLER_38_83
*1717 FILLER_38_88
*1718 FILLER_39_100
*1719 FILLER_39_108
*1720 FILLER_39_113
*1721 FILLER_39_125