*SPEF "ieee 1481-1999"
*DESIGN "mult4_SARSA_WInd_e9_SARSA_RUIDO_e9_SARSA_RUIDO_e9_SARSA_RUIDO_e9"
*DATE "18:43:30 Tuesday September 16, 2025"
*VENDOR "The OpenROAD Project"
*PROGRAM "OpenROAD"
*VERSION "edf00dff99f6c40d67a30c0e22a8191c5d2ed9d6"
*DESIGN_FLOW "NAME_SCOPE LOCAL" "PIN_CAP NONE"
*DIVIDER /
*DELIMITER :
*BUS_DELIMITER []
*T_UNIT 1 NS
*C_UNIT 1 PF
*R_UNIT 1 OHM
*L_UNIT 1 HENRY

*NAME_MAP
*1 A[0]
*2 A[1]
*3 A[2]
*4 A[3]
*5 B[0]
*6 B[1]
*7 B[2]
*8 B[3]
*9 P[0]
*10 P[1]
*11 P[2]
*12 P[3]
*13 P[4]
*14 P[5]
*15 P[6]
*16 P[7]
*19 _00_
*20 _01_
*21 _02_
*22 _03_
*23 _04_
*24 _05_
*25 _06_
*26 _07_
*27 _08_
*28 _09_
*29 _10_
*30 _11_
*31 _12_
*32 _13_
*33 _14_
*34 _15_
*35 _16_
*36 _17_
*37 _18_
*38 _19_
*39 _20_
*40 _21_
*41 _22_
*42 _23_
*43 _24_
*44 _25_
*45 _26_
*46 _27_
*47 _28_
*48 _29_
*49 _30_
*50 _31_
*51 _32_
*52 _33_
*53 _34_
*54 _35_
*55 _36_
*56 _37_
*57 _38_
*58 _39_
*59 _40_
*60 _41_
*61 _42_
*62 _43_
*63 _44_
*64 net1
*65 net10
*66 net11
*67 net12
*68 net13
*69 net14
*70 net15
*71 net16
*72 net2
*73 net3
*74 net4
*75 net5
*76 net6
*77 net7
*78 net8
*79 net9
*80 FILLER_0_27
*81 FILLER_0_3
*82 FILLER_0_43
*83 FILLER_0_55
*84 FILLER_0_60
*85 FILLER_0_70
*86 FILLER_0_78
*87 FILLER_1_15
*88 FILLER_1_24
*89 FILLER_1_3
*90 FILLER_1_39
*91 FILLER_1_54
*92 FILLER_1_57
*93 FILLER_1_66
*94 FILLER_1_76
*95 FILLER_2_12
*96 FILLER_2_16
*97 FILLER_2_22
*98 FILLER_2_29
*99 FILLER_2_37
*100 FILLER_2_47
*101 FILLER_2_65
*102 FILLER_2_77
*103 FILLER_3_21
*104 FILLER_3_3
*105 FILLER_3_30
*106 FILLER_3_48
*107 FILLER_3_65
*108 FILLER_3_8
*109 FILLER_4_12
*110 FILLER_4_25
*111 FILLER_4_29
*112 FILLER_4_3
*113 FILLER_4_35
*114 FILLER_4_44
*115 FILLER_4_56
*116 FILLER_4_60
*117 FILLER_4_65
*118 FILLER_4_73
*119 FILLER_4_79
*120 FILLER_5_17
*121 FILLER_5_29
*122 FILLER_5_37
*123 FILLER_5_49
*124 FILLER_5_57
*125 FILLER_5_67
*126 FILLER_5_75
*127 FILLER_6_10
*128 FILLER_6_29
*129 FILLER_6_37
*130 FILLER_6_6
*131 FILLER_6_65
*132 FILLER_6_69
*133 FILLER_7_15
*134 FILLER_7_3
*135 FILLER_7_40
*136 FILLER_7_46
*137 FILLER_7_53
*138 FILLER_7_57
*139 FILLER_7_67
*140 FILLER_7_79
*141 FILLER_8_18
*142 FILLER_8_26
*143 FILLER_8_29
*144 FILLER_8_3
*145 FILLER_8_41
*146 FILLER_8_53
*147 FILLER_8_59
*148 FILLER_8_67
*149 FILLER_8_79
*150 FILLER_9_21
*151 FILLER_9_27
*152 FILLER_9_29
*153 FILLER_9_41
*154 FILLER_9_53
*155 FILLER_9_57
*156 FILLER_9_69
*157 FILLER_9_7
*158 PHY_EDGE_ROW_0_Left_10
*159 PHY_EDGE_ROW_0_Right_0
*160 PHY_EDGE_ROW_1_Left_11
*161 PHY_EDGE_ROW_1_Right_1
*162 PHY_EDGE_ROW_2_Left_12
*163 PHY_EDGE_ROW_2_Right_2
*164 PHY_EDGE_ROW_3_Left_13
*165 PHY_EDGE_ROW_3_Right_3
*166 PHY_EDGE_ROW_4_Left_14
*167 PHY_EDGE_ROW_4_Right_4
*168 PHY_EDGE_ROW_5_Left_15
*169 PHY_EDGE_ROW_5_Right_5
*170 PHY_EDGE_ROW_6_Left_16
*171 PHY_EDGE_ROW_6_Right_6
*172 PHY_EDGE_ROW_7_Left_17
*173 PHY_EDGE_ROW_7_Right_7
*174 PHY_EDGE_ROW_8_Left_18
*175 PHY_EDGE_ROW_8_Right_8
*176 PHY_EDGE_ROW_9_Left_19
*177 PHY_EDGE_ROW_9_Right_9
*178 TAP_TAPCELL_ROW_0_20
*179 TAP_TAPCELL_ROW_0_21
*180 TAP_TAPCELL_ROW_1_22
*181 TAP_TAPCELL_ROW_2_23
*182 TAP_TAPCELL_ROW_3_24
*183 TAP_TAPCELL_ROW_4_25
*184 TAP_TAPCELL_ROW_5_26
*185 TAP_TAPCELL_ROW_6_27
*186 TAP_TAPCELL_ROW_7_28
*187 TAP_TAPCELL_ROW_8_29
*188 TAP_TAPCELL_ROW_9_30
*189 TAP_TAPCELL_ROW_9_31
*190 _45_
*191 _46_
*192 _47_
*193 _48_
*194 _49_
*195 _50_
*196 _51_
*197 _52_
*198 _53_
*199 _54_
*200 _55_
*201 _56_
*202 _57_
*203 _58_
*204 _59_
*205 _60_
*206 _61_
*207 _62_
*208 _63_
*209 _64_
*210 _65_
*211 _66_
*212 _67_
*213 _68_
*214 _69_
*215 _70_
*216 _71_
*217 _72_
*218 _73_
*219 _74_
*220 _75_
*221 _76_
*222 _77_
*223 _78_
*224 _79_
*225 _80_
*226 _81_
*227 _82_
*228 _83_
*229 _84_
*230 _85_
*231 _86_
*232 _87_
*233 _88_
*234 _89_
*235 _90_
*236 _91_
*237 _92_
*238 _93_
*239 _94_
*240 _95_
*241 _96_
*242 _97_
*243 input1
*244 input2
*245 input3
*246 input4
*247 input5
*248 input6
*249 input7
*250 input8
*251 output10
*252 output11
*253 output12
*254 output13
*255 output14
*256 output15
*257 output16
*258 output9

*PORTS
A[0] I
A[1] I
A[2] I
A[3] I
B[0] I
B[1] I
B[2] I
B[3] I
P[0] O
P[1] O
P[2] O
P[3] O
P[4] O
P[5] O
P[6] O
P[7] O

*D_NET *1 0.000937178
*CONN
*P A[0] I
*I *243:A I *D sky130_fd_sc_hd__dlymetal6s2s_1
*CAP
1 A[0] 0.000413359
2 *243:A 0.000413359
3 *243:A *244:A 5.52302e-05
4 *243:A *72:8 5.52302e-05
*RES
1 A[0] *243:A 21.8357 
*END

*D_NET *2 0.00144978
*CONN
*P A[1] I
*I *244:A I *D sky130_fd_sc_hd__buf_1
*CAP
1 A[1] 0.000591507
2 *244:A 0.000591507
3 *244:A *248:A 0
4 *244:A *64:8 0.00014285
5 *244:A *64:12 2.8266e-06
6 *244:A *72:8 2.44318e-05
7 *244:A *72:21 4.14279e-05
8 *243:A *244:A 5.52302e-05
*RES
1 A[1] *244:A 25.2464 
*END

*D_NET *3 0.000645667
*CONN
*P A[2] I
*I *245:A I *D sky130_fd_sc_hd__dlymetal6s2s_1
*CAP
1 A[2] 0.000297152
2 *245:A 0.000297152
3 *245:A *246:A 2.87684e-05
4 *245:A *249:A 2.25951e-05
5 *245:A *74:12 0
*RES
1 A[2] *245:A 21.0874 
*END

*D_NET *4 0.000539552
*CONN
*P A[3] I
*I *246:A I *D sky130_fd_sc_hd__buf_1
*CAP
1 A[3] 0.00025059
2 *246:A 0.00025059
3 *246:A P[7] 0
4 *246:A *237:A 0
5 *246:A *249:A 0
6 *246:A *74:12 9.60337e-06
7 *245:A *246:A 2.87684e-05
*RES
1 A[3] *246:A 18.73 
*END

*D_NET *5 0.00229934
*CONN
*P B[0] I
*I *247:A I *D sky130_fd_sc_hd__buf_1
*CAP
1 B[0] 0.000786817
2 *247:A 0.000786817
3 *247:A P[0] 5.52302e-05
4 *247:A P[1] 0.000185655
5 *247:A *190:A 0
6 *247:A *190:B 0.000189634
7 *247:A *258:A 0.00010096
8 *247:A *19:10 9.90431e-05
9 *247:A *72:36 2.89114e-05
10 *247:A *75:6 3.97657e-05
11 *247:A *75:12 2.65105e-05
*RES
1 B[0] *247:A 30.5857 
*END

*D_NET *6 0.0014893
*CONN
*P B[1] I
*I *248:A I *D sky130_fd_sc_hd__dlymetal6s2s_1
*CAP
1 B[1] 0.000457781
2 *248:A 0.000457781
3 *248:A P[1] 0
4 *248:A *192:A 0.000144773
5 *248:A *192:B 5.58941e-05
6 *248:A *64:47 1.24368e-05
7 *248:A *64:64 9.41642e-05
8 *248:A *72:36 0.000266473
9 *244:A *248:A 0
*RES
1 B[1] *248:A 23.8893 
*END

*D_NET *7 0.00138021
*CONN
*P B[2] I
*I *249:A I *D sky130_fd_sc_hd__buf_1
*CAP
1 B[2] 0.000405567
2 *249:A 0.000405567
3 *249:A *224:C1 0.000227539
4 *249:A *235:A 0.000185643
5 *249:A *235:C 0
6 *249:A *250:A 2.87684e-05
7 *249:A *27:29 5.52302e-05
8 *249:A *73:14 0
9 *249:A *74:12 1.55885e-05
10 *249:A *78:71 3.37161e-05
11 *245:A *249:A 2.25951e-05
12 *246:A *249:A 0
*RES
1 B[2] *249:A 25.0482 
*END

*D_NET *8 0.000667549
*CONN
*P B[3] I
*I *250:A I *D sky130_fd_sc_hd__clkbuf_2
*CAP
1 B[3] 0.00031939
2 *250:A 0.00031939
3 *249:A *250:A 2.87684e-05
*RES
1 B[3] *250:A 21.1946 
*END

*D_NET *9 0.000899715
*CONN
*P P[0] O
*I *258:X O *D sky130_fd_sc_hd__buf_2
*CAP
1 P[0] 0.000422243
2 *258:X 0.000422243
3 *247:A P[0] 5.52302e-05
*RES
1 *258:X P[0] 21.8893 
*END

*D_NET *10 0.00169442
*CONN
*P P[1] O
*I *251:X O *D sky130_fd_sc_hd__buf_2
*CAP
1 P[1] 0.00068801
2 *251:X 0.00068801
3 P[1] *192:A 1.24368e-05
4 P[1] *192:B 0
5 P[1] *72:36 7.35137e-05
6 P[1] *76:6 4.67911e-05
7 *247:A P[1] 0.000185655
8 *248:A P[1] 0
*RES
1 *251:X P[1] 25.3357 
*END

*D_NET *11 0.000492114
*CONN
*P P[2] O
*I *252:X O *D sky130_fd_sc_hd__buf_2
*CAP
1 P[2] 0.000246057
2 *252:X 0.000246057
3 P[2] *200:B 0
*RES
1 *252:X P[2] 18.1949 
*END

*D_NET *12 0.0006037
*CONN
*P P[3] O
*I *253:X O *D sky130_fd_sc_hd__buf_2
*CAP
1 P[3] 0.000221595
2 *253:X 0.000221595
3 P[3] P[4] 9.28756e-05
4 P[3] *253:A 6.76337e-05
*RES
1 *253:X P[3] 18.8021 
*END

*D_NET *13 0.000488787
*CONN
*P P[4] O
*I *254:X O *D sky130_fd_sc_hd__buf_2
*CAP
1 P[4] 0.000197956
2 *254:X 0.000197956
3 P[4] P[5] 0
4 P[4] *47:21 0
5 P[3] P[4] 9.28756e-05
*RES
1 *254:X P[4] 18.1949 
*END

*D_NET *14 0.000630796
*CONN
*P P[5] O
*I *255:X O *D sky130_fd_sc_hd__buf_2
*CAP
1 P[5] 0.000315398
2 *255:X 0.000315398
3 P[4] P[5] 0
*RES
1 *255:X P[5] 19.4092 
*END

*D_NET *15 0.000560615
*CONN
*P P[6] O
*I *256:X O *D sky130_fd_sc_hd__buf_2
*CAP
1 P[6] 0.000242297
2 *256:X 0.000242297
3 P[6] P[7] 7.60209e-05
*RES
1 *256:X P[6] 18.9972 
*END

*D_NET *16 0.00156304
*CONN
*P P[7] O
*I *257:X O *D sky130_fd_sc_hd__buf_2
*CAP
1 P[7] 0.000722714
2 *257:X 0.000722714
3 P[7] *236:A2 0
4 P[7] *238:A 0
5 P[7] *257:A 4.15914e-05
6 P[6] P[7] 7.60209e-05
7 *246:A P[7] 0
*RES
1 *257:X P[7] 20.4902 
*END

*D_NET *19 0.00170684
*CONN
*I *197:C I *D sky130_fd_sc_hd__and4_1
*I *198:A3 I *D sky130_fd_sc_hd__a31o_1
*I *191:A I *D sky130_fd_sc_hd__inv_2
*I *190:Y O *D sky130_fd_sc_hd__nand2_1
*CAP
1 *197:C 0
2 *198:A3 9.34574e-05
3 *191:A 0
4 *190:Y 0.000116723
5 *19:23 0.000406961
6 *19:10 0.000430227
7 *198:A3 *197:A 1.59373e-05
8 *198:A3 *197:B 0.000262062
9 *198:A3 *197:D 0.000227532
10 *19:23 *197:D 2.14658e-05
11 *19:23 *200:A 3.34295e-05
12 *19:23 *35:10 0
13 *247:A *19:10 9.90431e-05
*RES
1 *190:Y *19:10 15.4786 
2 *19:10 *191:A 13.8 
3 *19:10 *19:23 8.5 
4 *19:23 *198:A3 12.7464 
5 *19:23 *197:C 9.3 
*END

*D_NET *20 0.00202393
*CONN
*I *209:C I *D sky130_fd_sc_hd__nand4_1
*I *193:A_N I *D sky130_fd_sc_hd__and2b_1
*I *212:B1 I *D sky130_fd_sc_hd__a31o_1
*I *192:X O *D sky130_fd_sc_hd__and4_1
*CAP
1 *209:C 5.58971e-05
2 *193:A_N 0
3 *212:B1 8.52521e-05
4 *192:X 0.000184671
5 *20:25 8.5309e-05
6 *20:12 0.000299335
7 *209:C *209:D 0.000256985
8 *209:C *251:A 2.14658e-05
9 *209:C *78:42 0.000313857
10 *212:B1 *34:10 5.54748e-05
11 *212:B1 *34:19 5.8298e-05
12 *212:B1 *64:25 5.37446e-05
13 *212:B1 *78:42 9.71197e-05
14 *20:12 *192:B 0.00010096
15 *20:12 *34:27 1.52978e-05
16 *20:12 *38:22 0
17 *20:12 *64:12 4.66233e-05
18 *20:12 *76:21 0
19 *20:12 *76:30 0
20 *20:12 *76:58 0
21 *20:12 *78:42 1.38167e-05
22 *20:25 *209:D 5.52302e-05
23 *20:25 *34:19 8.46829e-05
24 *20:25 *78:42 0.000139913
*RES
1 *192:X *20:12 21.4964 
2 *20:12 *212:B1 11.6304 
3 *20:12 *20:25 1.35714 
4 *20:25 *193:A_N 9.3 
5 *20:25 *209:C 12.3 
*END

*D_NET *21 0.0021049
*CONN
*I *220:A1 I *D sky130_fd_sc_hd__a21o_1
*I *204:A I *D sky130_fd_sc_hd__or4b_1
*I *194:X O *D sky130_fd_sc_hd__and2_1
*CAP
1 *220:A1 0.000300169
2 *204:A 0.000201993
3 *194:X 1.49302e-05
4 *21:6 0.000517093
5 *204:A *38:22 8.18233e-06
6 *204:A *75:12 1.00332e-05
7 *204:A *75:31 6.90679e-05
8 *220:A1 *200:A 0.000272371
9 *220:A1 *205:B2 4.17433e-05
10 *220:A1 *219:A1 5.52302e-05
11 *220:A1 *219:B1 1.24368e-05
12 *220:A1 *35:10 3.92757e-05
13 *220:A1 *35:21 1.52978e-05
14 *220:A1 *38:22 0.000341478
15 *220:A1 *38:37 2.58821e-05
16 *220:A1 *46:10 0
17 *21:6 *195:B 5.65955e-05
18 *21:6 *205:B2 9.94545e-05
19 *21:6 *38:22 2.36643e-05
*RES
1 *194:X *21:6 10.2464 
2 *21:6 *204:A 21.5857 
3 *21:6 *220:A1 26.3357 
*END

*D_NET *22 0.00447607
*CONN
*I *200:A I *D sky130_fd_sc_hd__xnor2_1
*I *205:B2 I *D sky130_fd_sc_hd__a2bb2o_1
*I *195:Y O *D sky130_fd_sc_hd__nand2_1
*CAP
1 *200:A 0.000679995
2 *205:B2 0.000633369
3 *195:Y 0
4 *22:4 0.00131336
5 *200:A *199:A_N 2.89016e-05
6 *200:A *252:A 0
7 *200:A *24:6 7.17235e-05
8 *200:A *25:10 0.000358965
9 *200:A *35:10 0
10 *200:A *46:10 0.00010096
11 *205:B2 *195:B 1.5872e-05
12 *205:B2 *204:D_N 3.8624e-05
13 *205:B2 *29:12 9.91086e-05
14 *205:B2 *37:12 9.5819e-05
15 *205:B2 *38:22 0.000483605
16 *205:B2 *76:58 4.46186e-06
17 *205:B2 *76:77 0.000104301
18 *220:A1 *200:A 0.000272371
19 *220:A1 *205:B2 4.17433e-05
20 *19:23 *200:A 3.34295e-05
21 *21:6 *205:B2 9.94545e-05
*RES
1 *195:Y *22:4 9.3 
2 *22:4 *205:B2 28.8179 
3 *22:4 *200:A 30.5857 
*END

*D_NET *23 0.00533094
*CONN
*I *205:A1_N I *D sky130_fd_sc_hd__a2bb2o_1
*I *204:B I *D sky130_fd_sc_hd__or4b_1
*I *198:B1 I *D sky130_fd_sc_hd__a31o_1
*I *197:D I *D sky130_fd_sc_hd__and4_1
*I *196:X O *D sky130_fd_sc_hd__and2_1
*CAP
1 *205:A1_N 6.81792e-05
2 *204:B 3.96417e-05
3 *198:B1 0.000142498
4 *197:D 0.000305945
5 *196:X 0.000471579
6 *23:40 0.000179231
7 *23:10 0.000579486
8 *23:8 0.000674031
9 *197:D *197:A 2.2351e-05
10 *197:D *25:10 0.000228558
11 *197:D *75:12 2.01732e-05
12 *198:B1 *251:A 9.58126e-05
13 *198:B1 *35:10 4.60235e-05
14 *198:B1 *72:43 0.000240924
15 *204:B *37:12 5.49544e-05
16 *205:A1_N *204:C 8.46829e-05
17 *205:A1_N *205:A2_N 5.49489e-05
18 *205:A1_N *28:10 2.26327e-05
19 *205:A1_N *37:12 0.000139632
20 *23:8 *203:A 9.22103e-06
21 *23:8 *203:B 9.60939e-05
22 *23:8 *29:12 0.000483229
23 *23:8 *73:39 0.00056517
24 *23:8 *75:31 0.000137983
25 *23:8 *75:39 0.000163529
26 *23:10 *28:10 8.26195e-05
27 *23:10 *38:22 2.71557e-05
28 *23:40 *28:10 4.56594e-05
29 *198:A3 *197:D 0.000227532
30 *19:23 *197:D 2.14658e-05
*RES
1 *196:X *23:8 25.8357 
2 *23:8 *23:10 2.55357 
3 *23:10 *197:D 19.1214 
4 *23:10 *198:B1 17.6571 
5 *23:8 *23:40 1.33929 
6 *23:40 *204:B 14.3357 
7 *23:40 *205:A1_N 15.8893 
*END

*D_NET *24 0.0011717
*CONN
*I *199:A_N I *D sky130_fd_sc_hd__and2b_1
*I *220:B1 I *D sky130_fd_sc_hd__a21o_1
*I *197:X O *D sky130_fd_sc_hd__and4_1
*CAP
1 *199:A_N 0.000162063
2 *220:B1 2.23854e-05
3 *197:X 0.000117983
4 *24:6 0.000302432
5 *199:A_N *199:B 0
6 *199:A_N *200:B 0
7 *24:6 *25:10 0.000315152
8 *24:6 *35:10 0.000151061
9 *200:A *199:A_N 2.89016e-05
10 *200:A *24:6 7.17235e-05
*RES
1 *197:X *24:6 13.5321 
2 *24:6 *220:B1 9.72857 
3 *24:6 *199:A_N 21.0857 
*END

*D_NET *25 0.00209627
*CONN
*I *220:A2 I *D sky130_fd_sc_hd__a21o_1
*I *199:B I *D sky130_fd_sc_hd__and2b_1
*I *198:X O *D sky130_fd_sc_hd__a31o_1
*CAP
1 *220:A2 0
2 *199:B 0.000331058
3 *198:X 0.000133707
4 *25:10 0.000464766
5 *199:B *35:10 7.90803e-05
6 *25:10 *197:A 5.52302e-05
7 *25:10 *35:10 0.00012975
8 *197:D *25:10 0.000228558
9 *199:A_N *199:B 0
10 *200:A *25:10 0.000358965
11 *24:6 *25:10 0.000315152
*RES
1 *198:X *25:10 15.7286 
2 *25:10 *199:B 23.55 
3 *25:10 *220:A2 9.3 
*END

*D_NET *26 0.000290432
*CONN
*I *200:B I *D sky130_fd_sc_hd__xnor2_1
*I *199:X O *D sky130_fd_sc_hd__and2b_1
*CAP
1 *200:B 0.000145216
2 *199:X 0.000145216
3 P[2] *200:B 0
4 *199:A_N *200:B 0
*RES
1 *199:X *200:B 29.7786 
*END

*D_NET *27 0.00406623
*CONN
*I *224:A1 I *D sky130_fd_sc_hd__o211a_1
*I *206:A_N I *D sky130_fd_sc_hd__nand3b_1
*I *207:B1_N I *D sky130_fd_sc_hd__a21bo_1
*I *239:A1 I *D sky130_fd_sc_hd__a21oi_1
*I *235:C I *D sky130_fd_sc_hd__and3_1
*I *201:Y O *D sky130_fd_sc_hd__nand2_1
*CAP
1 *224:A1 1.5858e-05
2 *206:A_N 0.000183874
3 *207:B1_N 0
4 *239:A1 0.00014778
5 *235:C 9.14207e-05
6 *201:Y 0
7 *27:50 0.00069629
8 *27:44 0.000580813
9 *27:29 0.000487096
10 *27:4 0.000378198
11 *206:A_N *206:C 0.000191877
12 *206:A_N *230:A2 5.33005e-05
13 *206:A_N *31:8 9.25014e-06
14 *224:A1 *223:A 0
15 *224:A1 *48:8 2.26391e-05
16 *235:C *235:A 6.04072e-05
17 *235:C *73:14 7.6644e-05
18 *239:A1 *237:A 0
19 *239:A1 *239:B1 7.57965e-05
20 *239:A1 *240:B1 5.83233e-05
21 *239:A1 *74:20 1.52978e-05
22 *239:A1 *77:8 0
23 *27:29 *201:A 0.00018077
24 *27:29 *210:C 1.99881e-05
25 *27:29 *224:B1 3.57366e-05
26 *27:29 *224:C1 0.000104494
27 *27:29 *235:A 0
28 *27:29 *73:21 2.28598e-05
29 *27:29 *74:20 1.02969e-05
30 *27:29 *77:8 0.000100831
31 *27:29 *78:71 0.000227539
32 *27:44 *223:A 1.55885e-05
33 *27:44 *48:8 1.96517e-05
34 *27:44 *78:71 1.74352e-05
35 *27:50 *223:A 9.99644e-06
36 *27:50 *223:B 7.32272e-05
37 *27:50 *48:8 2.77173e-05
38 *249:A *235:C 0
39 *249:A *27:29 5.52302e-05
*RES
1 *201:Y *27:4 9.3 
2 *27:4 *235:C 19.9429 
3 *27:4 *27:29 15.4286 
4 *27:29 *239:A1 21.3893 
5 *27:29 *27:44 1.15179 
6 *27:44 *27:50 8.58036 
7 *27:50 *207:B1_N 9.3 
8 *27:50 *206:A_N 22.3357 
9 *27:44 *224:A1 10.0589 
*END

*D_NET *28 0.00127645
*CONN
*I *204:C I *D sky130_fd_sc_hd__or4b_1
*I *205:A2_N I *D sky130_fd_sc_hd__a2bb2o_1
*I *202:Y O *D sky130_fd_sc_hd__nand2_1
*CAP
1 *204:C 7.03807e-05
2 *205:A2_N 2.10075e-05
3 *202:Y 0.000223441
4 *28:10 0.000314829
5 *204:C *204:D_N 9.87672e-05
6 *204:C *37:12 6.96878e-05
7 *205:A2_N *204:D_N 9.83388e-05
8 *205:A2_N *37:12 1.47972e-05
9 *28:10 *75:31 7.46591e-05
10 *28:10 *76:77 0
11 *205:A1_N *204:C 8.46829e-05
12 *205:A1_N *205:A2_N 5.49489e-05
13 *205:A1_N *28:10 2.26327e-05
14 *23:10 *28:10 8.26195e-05
15 *23:40 *28:10 4.56594e-05
*RES
1 *202:Y *28:10 22.675 
2 *28:10 *205:A2_N 10.2464 
3 *28:10 *204:C 11.4786 
*END

*D_NET *29 0.00213897
*CONN
*I *204:D_N I *D sky130_fd_sc_hd__or4b_1
*I *205:B1 I *D sky130_fd_sc_hd__a2bb2o_1
*I *203:X O *D sky130_fd_sc_hd__and2_1
*CAP
1 *204:D_N 0.000211104
2 *205:B1 0
3 *203:X 0.000430458
4 *29:12 0.000641562
5 *204:D_N *37:12 2.77413e-05
6 *29:12 *76:77 1.00375e-05
7 *204:C *204:D_N 9.87672e-05
8 *205:A2_N *204:D_N 9.83388e-05
9 *205:B2 *204:D_N 3.8624e-05
10 *205:B2 *29:12 9.91086e-05
11 *23:8 *29:12 0.000483229
*RES
1 *203:X *29:12 24.5857 
2 *29:12 *205:B1 9.3 
3 *29:12 *204:D_N 13.6929 
*END

*D_NET *30 0.00222477
*CONN
*I *230:A1 I *D sky130_fd_sc_hd__a21o_1
*I *229:A I *D sky130_fd_sc_hd__and3_1
*I *206:B I *D sky130_fd_sc_hd__nand3b_1
*I *207:A1 I *D sky130_fd_sc_hd__a21bo_1
*I *204:X O *D sky130_fd_sc_hd__or4b_1
*CAP
1 *230:A1 0.000306059
2 *229:A 0
3 *206:B 2.39758e-05
4 *207:A1 4.87454e-05
5 *204:X 0.000201888
6 *30:36 0.000361672
7 *30:25 0.000189847
8 *30:12 0.000360892
9 *206:B *230:A2 5.49489e-05
10 *207:A1 *207:A2 5.65955e-05
11 *230:A1 *229:C 5.49489e-05
12 *230:A1 *234:A2 0.000183822
13 *230:A1 *32:27 1.55195e-05
14 *230:A1 *53:23 4.4432e-05
15 *30:12 *31:8 0
16 *30:12 *33:10 6.76152e-05
17 *30:25 *206:C 7.36267e-05
18 *30:25 *31:8 1.19309e-05
19 *30:25 *32:27 8.14787e-05
20 *30:36 *229:C 1.51571e-05
21 *30:36 *230:A2 5.33005e-05
22 *30:36 *32:27 1.83136e-05
*RES
1 *204:X *30:12 22.1214 
2 *30:12 *207:A1 10.2464 
3 *30:12 *30:25 11.8571 
4 *30:25 *206:B 9.83571 
5 *30:25 *30:36 1.375 
6 *30:36 *229:A 9.3 
7 *30:36 *230:A1 22.7643 
*END

*D_NET *31 0.000864352
*CONN
*I *206:C I *D sky130_fd_sc_hd__nand3b_1
*I *207:A2 I *D sky130_fd_sc_hd__a21bo_1
*I *205:X O *D sky130_fd_sc_hd__a2bb2o_1
*CAP
1 *206:C 0.000105094
2 *207:A2 5.05094e-05
3 *205:X 0.000104933
4 *31:8 0.000260536
5 *206:A_N *206:C 0.000191877
6 *206:A_N *31:8 9.25014e-06
7 *207:A1 *207:A2 5.65955e-05
8 *30:12 *31:8 0
9 *30:25 *206:C 7.36267e-05
10 *30:25 *31:8 1.19309e-05
*RES
1 *205:X *31:8 15.7464 
2 *31:8 *207:A2 14.7464 
3 *31:8 *206:C 16.8893 
*END

*D_NET *32 0.00265007
*CONN
*I *216:A I *D sky130_fd_sc_hd__nand3_1
*I *215:A I *D sky130_fd_sc_hd__and3_1
*I *217:A1 I *D sky130_fd_sc_hd__a21oi_1
*I *229:B I *D sky130_fd_sc_hd__and3_1
*I *230:A2 I *D sky130_fd_sc_hd__a21o_1
*I *206:Y O *D sky130_fd_sc_hd__nand3b_1
*CAP
1 *216:A 3.80698e-05
2 *215:A 1.06381e-05
3 *217:A1 1.70795e-05
4 *229:B 0
5 *230:A2 0.00016583
6 *206:Y 0
7 *32:47 0.000106317
8 *32:36 0.000269232
9 *32:27 0.000370159
10 *32:4 0.000341445
11 *215:A *217:B1 9.7049e-06
12 *215:A *40:25 3.99614e-06
13 *216:A *216:B 0.000201498
14 *216:A *217:B1 5.97949e-05
15 *216:A *33:18 1.21289e-05
16 *216:A *40:25 0.000109664
17 *217:A1 *217:B1 5.7661e-06
18 *230:A2 *228:A 0
19 *230:A2 *229:C 0.000315263
20 *32:27 *229:C 3.28378e-06
21 *32:36 *229:C 8.33859e-06
22 *32:36 *33:18 5.52302e-05
23 *32:36 *54:10 2.27416e-05
24 *32:47 *216:B 1.04232e-05
25 *32:47 *217:B1 5.63018e-05
26 *32:47 *33:18 0.000180302
27 *206:A_N *230:A2 5.33005e-05
28 *206:B *230:A2 5.49489e-05
29 *230:A1 *32:27 1.55195e-05
30 *30:25 *32:27 8.14787e-05
31 *30:36 *230:A2 5.33005e-05
32 *30:36 *32:27 1.83136e-05
*RES
1 *206:Y *32:4 9.3 
2 *32:4 *230:A2 22.55 
3 *32:4 *32:27 11.6964 
4 *32:27 *229:B 9.3 
5 *32:27 *32:36 3.73214 
6 *32:36 *217:A1 9.72857 
7 *32:36 *32:47 2.60714 
8 *32:47 *215:A 9.72857 
9 *32:47 *216:A 12.0679 
*END

*D_NET *33 0.00211056
*CONN
*I *217:A2 I *D sky130_fd_sc_hd__a21oi_1
*I *215:B I *D sky130_fd_sc_hd__and3_1
*I *216:B I *D sky130_fd_sc_hd__nand3_1
*I *207:X O *D sky130_fd_sc_hd__a21bo_1
*CAP
1 *217:A2 5.38519e-05
2 *215:B 2.88431e-05
3 *216:B 0.000109148
4 *207:X 0.000382929
5 *33:18 0.000327754
6 *33:10 0.000626544
7 *216:B *40:25 2.86259e-05
8 *33:10 *43:16 2.56694e-05
9 *216:A *216:B 0.000201498
10 *216:A *33:18 1.21289e-05
11 *30:12 *33:10 6.76152e-05
12 *32:36 *33:18 5.52302e-05
13 *32:47 *216:B 1.04232e-05
14 *32:47 *33:18 0.000180302
*RES
1 *207:X *33:10 18.9607 
2 *33:10 *33:18 8.05357 
3 *33:18 *216:B 12.6393 
4 *33:18 *215:B 9.83571 
5 *33:10 *217:A2 14.5321 
*END

*D_NET *34 0.00442716
*CONN
*I *209:D I *D sky130_fd_sc_hd__nand4_1
*I *226:A I *D sky130_fd_sc_hd__nand2_1
*I *225:A I *D sky130_fd_sc_hd__nor2_1
*I *227:A I *D sky130_fd_sc_hd__xor2_1
*I *212:A3 I *D sky130_fd_sc_hd__a31o_1
*I *208:Y O *D sky130_fd_sc_hd__nand4_2
*CAP
1 *209:D 6.7812e-05
2 *226:A 0
3 *225:A 0.000175829
4 *227:A 0
5 *212:A3 0
6 *208:Y 0.000396681
7 *34:42 0.000285658
8 *34:27 0.000863488
9 *34:19 0.000881207
10 *34:10 0.000456417
11 *209:D *251:A 5.71472e-05
12 *209:D *38:22 0.000173328
13 *225:A *225:B 2.84347e-05
14 *225:A *236:A1 7.49387e-06
15 *225:A *236:A2 2.11419e-05
16 *225:A *236:B1 1.92789e-05
17 *225:A *240:B1 2.70591e-05
18 *225:A *36:14 4.46186e-06
19 *34:10 *196:A 2.02508e-05
20 *34:10 *64:25 1.84375e-05
21 *34:19 *38:22 5.71472e-05
22 *34:27 *192:B 0
23 *34:27 *203:B 0
24 *34:27 *210:B 0
25 *34:27 *228:A 0
26 *34:27 *36:14 0
27 *34:27 *38:22 0
28 *34:27 *49:10 9.96238e-05
29 *34:27 *73:39 3.93893e-05
30 *34:27 *75:39 0
31 *34:27 *76:77 0
32 *34:27 *78:42 0
33 *34:42 *225:B 7.48031e-05
34 *34:42 *227:B 0.000111684
35 *34:42 *36:16 1.44193e-05
36 *209:C *209:D 0.000256985
37 *212:B1 *34:10 5.54748e-05
38 *212:B1 *34:19 5.8298e-05
39 *20:12 *34:27 1.52978e-05
40 *20:25 *209:D 5.52302e-05
41 *20:25 *34:19 8.46829e-05
*RES
1 *208:Y *34:10 14.8 
2 *34:10 *212:A3 9.3 
3 *34:10 *34:19 1.78571 
4 *34:19 *34:27 21.5 
5 *34:27 *227:A 9.3 
6 *34:27 *34:42 3.25893 
7 *34:42 *225:A 21.5411 
8 *34:42 *226:A 9.3 
9 *34:19 *209:D 12.3 
*END

*D_NET *35 0.0039137
*CONN
*I *213:A I *D sky130_fd_sc_hd__nand3_1
*I *214:B1_N I *D sky130_fd_sc_hd__a21bo_1
*I *219:A1 I *D sky130_fd_sc_hd__a21o_1
*I *209:Y O *D sky130_fd_sc_hd__nand4_1
*CAP
1 *213:A 0.000164063
2 *214:B1_N 3.75977e-05
3 *219:A1 3.92213e-05
4 *209:Y 0.000873748
5 *35:21 0.000399006
6 *35:10 0.00111032
7 *213:A *213:B 8.31933e-05
8 *213:A *213:C 0
9 *213:A *219:B1 4.46186e-06
10 *213:A *43:16 3.67257e-05
11 *214:B1_N *37:12 9.90367e-05
12 *35:10 *197:A 0.000171316
13 *35:10 *198:A1 5.65955e-05
14 *35:10 *251:A 0.000224752
15 *35:10 *72:43 1.10868e-05
16 *35:21 *219:B1 8.68665e-05
17 *35:21 *46:10 0
18 *198:B1 *35:10 4.60235e-05
19 *199:B *35:10 7.90803e-05
20 *200:A *35:10 0
21 *220:A1 *219:A1 5.52302e-05
22 *220:A1 *35:10 3.92757e-05
23 *220:A1 *35:21 1.52978e-05
24 *19:23 *35:10 0
25 *24:6 *35:10 0.000151061
26 *25:10 *35:10 0.00012975
*RES
1 *209:Y *35:10 26.7464 
2 *35:10 *219:A1 14.3357 
3 *35:10 *35:21 3.16071 
4 *35:21 *214:B1_N 14.7464 
5 *35:21 *213:A 17.3 
*END

*D_NET *36 0.00277445
*CONN
*I *211:C I *D sky130_fd_sc_hd__and3_1
*I *226:B I *D sky130_fd_sc_hd__nand2_1
*I *227:B I *D sky130_fd_sc_hd__xor2_1
*I *225:B I *D sky130_fd_sc_hd__nor2_1
*I *210:Y O *D sky130_fd_sc_hd__nand4_2
*CAP
1 *211:C 0.000208292
2 *226:B 0
3 *227:B 7.65124e-05
4 *225:B 4.40785e-05
5 *210:Y 7.25007e-05
6 *36:16 0.000130874
7 *36:14 0.000300313
8 *36:8 0.000570823
9 *211:C *210:A 0.000216121
10 *211:C *76:77 0.00010858
11 *225:B *236:A1 0.000140422
12 *227:B *228:A 0.000140933
13 *227:B *236:A1 4.08637e-05
14 *36:8 *210:A 4.9071e-05
15 *36:8 *73:29 5.19842e-06
16 *36:14 *203:B 1.94012e-05
17 *36:14 *223:B 6.54117e-05
18 *36:14 *239:B1 7.85979e-05
19 *36:14 *240:B1 0
20 *36:14 *49:10 0.000272658
21 *225:A *225:B 2.84347e-05
22 *225:A *36:14 4.46186e-06
23 *34:27 *36:14 0
24 *34:42 *225:B 7.48031e-05
25 *34:42 *227:B 0.000111684
26 *34:42 *36:16 1.44193e-05
*RES
1 *210:Y *36:8 10.5679 
2 *36:8 *36:14 15.5 
3 *36:14 *36:16 0.428571 
4 *36:16 *225:B 11.3357 
5 *36:16 *227:B 11.8 
6 *36:14 *226:B 9.3 
7 *36:8 *211:C 12.3714 
*END

*D_NET *37 0.0032867
*CONN
*I *214:A1 I *D sky130_fd_sc_hd__a21bo_1
*I *213:B I *D sky130_fd_sc_hd__nand3_1
*I *219:B1 I *D sky130_fd_sc_hd__a21o_1
*I *211:X O *D sky130_fd_sc_hd__and3_1
*CAP
1 *214:A1 0
2 *213:B 0.000120176
3 *219:B1 0.00014119
4 *211:X 0.000925515
5 *37:14 0.000261366
6 *37:12 0.000925515
7 *213:B *213:C 7.57773e-05
8 *213:B *38:37 5.80706e-06
9 *213:B *43:16 4.46231e-06
10 *219:B1 *219:A2 1.97695e-05
11 *219:B1 *38:37 0.00011598
12 *219:B1 *46:10 0
13 *37:12 *76:77 2.51343e-06
14 *204:B *37:12 5.49544e-05
15 *204:C *37:12 6.96878e-05
16 *204:D_N *37:12 2.77413e-05
17 *205:A1_N *37:12 0.000139632
18 *205:A2_N *37:12 1.47972e-05
19 *205:B2 *37:12 9.5819e-05
20 *213:A *213:B 8.31933e-05
21 *213:A *219:B1 4.46186e-06
22 *214:B1_N *37:12 9.90367e-05
23 *220:A1 *219:B1 1.24368e-05
24 *35:21 *219:B1 8.68665e-05
*RES
1 *211:X *37:12 23.55 
2 *37:12 *37:14 4.5 
3 *37:14 *219:B1 17.0143 
4 *37:14 *213:B 16.7107 
5 *37:12 *214:A1 9.3 
*END

*D_NET *38 0.00454802
*CONN
*I *213:C I *D sky130_fd_sc_hd__nand3_1
*I *214:A2 I *D sky130_fd_sc_hd__a21bo_1
*I *219:A2 I *D sky130_fd_sc_hd__a21o_1
*I *212:X O *D sky130_fd_sc_hd__a31o_1
*CAP
1 *213:C 0.000133635
2 *214:A2 3.72884e-05
3 *219:A2 1.53865e-05
4 *212:X 0.000656494
5 *38:37 0.000385419
6 *38:22 0.000886377
7 *213:C *221:C 0
8 *213:C *39:12 2.89114e-05
9 *213:C *40:12 4.25716e-05
10 *213:C *43:16 1.92905e-05
11 *213:C *47:8 0
12 *38:22 *194:A 8.45367e-05
13 *38:22 *195:B 0.000153293
14 *38:22 *203:A 5.33005e-05
15 *38:22 *73:39 3.66228e-05
16 *38:22 *75:31 9.31595e-05
17 *38:22 *75:39 0.00039745
18 *38:22 *76:58 0.000144038
19 *38:22 *76:77 2.24646e-05
20 *38:37 *221:C 0
21 *38:37 *46:10 0
22 *204:A *38:22 8.18233e-06
23 *205:B2 *38:22 0.000483605
24 *209:D *38:22 0.000173328
25 *213:A *213:C 0
26 *213:B *213:C 7.57773e-05
27 *213:B *38:37 5.80706e-06
28 *219:B1 *219:A2 1.97695e-05
29 *219:B1 *38:37 0.00011598
30 *220:A1 *38:22 0.000341478
31 *220:A1 *38:37 2.58821e-05
32 *20:12 *38:22 0
33 *21:6 *38:22 2.36643e-05
34 *23:10 *38:22 2.71557e-05
35 *34:19 *38:22 5.71472e-05
36 *34:27 *38:22 0
*RES
1 *212:X *38:22 45.4429 
2 *38:22 *219:A2 9.72857 
3 *38:22 *38:37 8.64286 
4 *38:37 *214:A2 14.3357 
5 *38:37 *213:C 16.8893 
*END

*D_NET *39 0.00140866
*CONN
*I *241:A1 I *D sky130_fd_sc_hd__a21o_1
*I *221:A I *D sky130_fd_sc_hd__nand3_2
*I *213:Y O *D sky130_fd_sc_hd__nand3_1
*CAP
1 *241:A1 6.94095e-05
2 *221:A 0
3 *213:Y 0.000501039
4 *39:12 0.000570448
5 *241:A1 *241:A2 6.31372e-05
6 *241:A1 *241:B1 2.78584e-05
7 *39:12 *242:A 2.59355e-05
8 *39:12 *242:B 0
9 *39:12 *43:16 1.86687e-05
10 *39:12 *47:8 0.000103253
11 *213:C *39:12 2.89114e-05
*RES
1 *213:Y *39:12 24.5857 
2 *39:12 *221:A 9.3 
3 *39:12 *241:A1 11.1036 
*END

*D_NET *40 0.00180133
*CONN
*I *215:C I *D sky130_fd_sc_hd__and3_1
*I *217:B1 I *D sky130_fd_sc_hd__a21oi_1
*I *216:C I *D sky130_fd_sc_hd__nand3_1
*I *214:X O *D sky130_fd_sc_hd__a21bo_1
*CAP
1 *215:C 0
2 *217:B1 0.000186285
3 *216:C 0
4 *214:X 0.000290814
5 *40:25 0.000308622
6 *40:12 0.000413151
7 *40:12 *42:8 1.87955e-05
8 *40:12 *43:16 8.15939e-05
9 *40:12 *47:8 0
10 *40:12 *47:21 0
11 *40:25 *218:A 0.000185643
12 *213:C *40:12 4.25716e-05
13 *215:A *217:B1 9.7049e-06
14 *215:A *40:25 3.99614e-06
15 *216:A *217:B1 5.97949e-05
16 *216:A *40:25 0.000109664
17 *216:B *40:25 2.86259e-05
18 *217:A1 *217:B1 5.7661e-06
19 *32:47 *217:B1 5.63018e-05
*RES
1 *214:X *40:12 23.6214 
2 *40:12 *216:C 9.3 
3 *40:12 *40:25 3.47768 
4 *40:25 *217:B1 12.3045 
5 *40:25 *215:C 9.3 
*END

*D_NET *41 0.000651508
*CONN
*I *218:A I *D sky130_fd_sc_hd__nor2_1
*I *215:X O *D sky130_fd_sc_hd__and3_1
*CAP
1 *218:A 0.000176315
2 *215:X 0.000176315
3 *218:A *42:8 4.57445e-05
4 *218:A *43:16 6.74911e-05
5 *40:25 *218:A 0.000185643
*RES
1 *215:X *218:A 31.0107 
*END

*D_NET *42 0.00128975
*CONN
*I *232:B1 I *D sky130_fd_sc_hd__o21a_1
*I *234:B2 I *D sky130_fd_sc_hd__o221ai_4
*I *216:Y O *D sky130_fd_sc_hd__nand3_1
*CAP
1 *232:B1 0.000117909
2 *234:B2 0.000220644
3 *216:Y 0.000185491
4 *42:8 0.000524044
5 *232:B1 *232:A1 0
6 *232:B1 *232:A2 6.75007e-05
7 *234:B2 *234:A2 0.000105163
8 *42:8 *232:A1 0
9 *42:8 *232:A2 4.46186e-06
10 *218:A *42:8 4.57445e-05
11 *40:12 *42:8 1.87955e-05
*RES
1 *216:Y *42:8 16.9607 
2 *42:8 *234:B2 18.05 
3 *42:8 *232:B1 16.3536 
*END

*D_NET *43 0.00207635
*CONN
*I *232:A1 I *D sky130_fd_sc_hd__o21a_1
*I *218:B I *D sky130_fd_sc_hd__nor2_1
*I *217:Y O *D sky130_fd_sc_hd__a21oi_1
*CAP
1 *232:A1 0.000184673
2 *218:B 0
3 *217:Y 0.000703675
4 *43:16 0.000888348
5 *232:A1 *232:A2 4.57538e-05
6 *232:A1 *47:21 0
7 *43:16 *47:21 0
8 *213:A *43:16 3.67257e-05
9 *213:B *43:16 4.46231e-06
10 *213:C *43:16 1.92905e-05
11 *218:A *43:16 6.74911e-05
12 *232:B1 *232:A1 0
13 *33:10 *43:16 2.56694e-05
14 *39:12 *43:16 1.86687e-05
15 *40:12 *43:16 8.15939e-05
16 *42:8 *232:A1 0
*RES
1 *217:Y *43:16 33.3714 
2 *43:16 *218:B 13.8 
3 *43:16 *232:A1 17.3 
*END

*D_NET *44 0.000391242
*CONN
*I *222:A I *D sky130_fd_sc_hd__xnor2_1
*I *218:Y O *D sky130_fd_sc_hd__nor2_1
*CAP
1 *222:A 0.000133093
2 *218:Y 0.000133093
3 *222:A *254:A 0
4 *222:A *47:23 0.000125057
*RES
1 *218:Y *222:A 21.2071 
*END

*D_NET *45 0.00117276
*CONN
*I *241:A2 I *D sky130_fd_sc_hd__a21o_1
*I *221:B I *D sky130_fd_sc_hd__nand3_2
*I *219:X O *D sky130_fd_sc_hd__a21o_1
*CAP
1 *241:A2 9.79491e-05
2 *221:B 0
3 *219:X 0.000336487
4 *45:12 0.000434436
5 *241:A2 *241:B1 0.000185303
6 *45:12 *221:C 2.19778e-05
7 *45:12 *46:10 3.34672e-05
8 *241:A1 *241:A2 6.31372e-05
*RES
1 *219:X *45:12 22.8357 
2 *45:12 *221:B 9.3 
3 *45:12 *241:A2 12.4607 
*END

*D_NET *46 0.00157521
*CONN
*I *221:C I *D sky130_fd_sc_hd__nand3_2
*I *241:B1 I *D sky130_fd_sc_hd__a21o_1
*I *220:X O *D sky130_fd_sc_hd__a21o_1
*CAP
1 *221:C 3.28518e-05
2 *241:B1 0.000296611
3 *220:X 0.000273357
4 *46:10 0.00060282
5 *200:A *46:10 0.00010096
6 *213:C *221:C 0
7 *219:B1 *46:10 0
8 *220:A1 *46:10 0
9 *241:A1 *241:B1 2.78584e-05
10 *241:A2 *241:B1 0.000185303
11 *35:21 *46:10 0
12 *38:37 *221:C 0
13 *38:37 *46:10 0
14 *45:12 *221:C 2.19778e-05
15 *45:12 *46:10 3.34672e-05
*RES
1 *220:X *46:10 18.5143 
2 *46:10 *241:B1 19.3 
3 *46:10 *221:C 14.5321 
*END

*D_NET *47 0.00183163
*CONN
*I *222:B I *D sky130_fd_sc_hd__xnor2_1
*I *232:A2 I *D sky130_fd_sc_hd__o21a_1
*I *234:A1 I *D sky130_fd_sc_hd__o221ai_4
*I *242:A I *D sky130_fd_sc_hd__and2_1
*I *221:Y O *D sky130_fd_sc_hd__nand3_2
*CAP
1 *222:B 0
2 *232:A2 5.77414e-05
3 *234:A1 5.67899e-05
4 *242:A 2.98339e-05
5 *221:Y 9.39436e-05
6 *47:23 0.000293312
7 *47:21 0.000491527
8 *47:8 0.000436523
9 *234:A1 *234:A2 0
10 *47:8 *242:B 0
11 *47:21 *253:A 0
12 P[4] *47:21 0
13 *213:C *47:8 0