*SPEF "ieee 1481-1999"
*DESIGN "mult8_2bits_1op_e17349"
*DATE "19:23:15 Tuesday September 16, 2025"
*VENDOR "The OpenROAD Project"
*PROGRAM "OpenROAD"
*VERSION "edf00dff99f6c40d67a30c0e22a8191c5d2ed9d6"
*DESIGN_FLOW "NAME_SCOPE LOCAL" "PIN_CAP NONE"
*DIVIDER /
*DELIMITER :
*BUS_DELIMITER []
*T_UNIT 1 NS
*C_UNIT 1 PF
*R_UNIT 1 OHM
*L_UNIT 1 HENRY

*NAME_MAP
*1 A[0]
*2 A[1]
*3 A[2]
*4 A[3]
*5 A[4]
*6 A[5]
*7 A[6]
*8 A[7]
*9 B[0]
*10 B[1]
*11 B[2]
*12 B[3]
*13 B[4]
*14 B[5]
*15 B[6]
*16 B[7]
*17 P[0]
*18 P[10]
*19 P[11]
*20 P[12]
*21 P[13]
*22 P[14]
*23 P[15]
*24 P[1]
*25 P[2]
*26 P[3]
*27 P[4]
*28 P[5]
*29 P[6]
*30 P[7]
*31 P[8]
*32 P[9]
*35 _000_
*36 _001_
*37 _002_
*38 _003_
*39 _004_
*40 _005_
*41 _006_
*42 _007_
*43 _008_
*44 _009_
*45 _010_
*46 _011_
*47 _012_
*48 _013_
*49 _014_
*50 _015_
*51 _016_
*52 _017_
*53 _018_
*54 _019_
*55 _020_
*56 _021_
*57 _022_
*58 _023_
*59 _024_
*60 _025_
*61 _026_
*62 _027_
*63 _028_
*64 _029_
*65 _030_
*66 _031_
*67 _032_
*68 _033_
*69 _034_
*70 _035_
*71 _036_
*72 _037_
*73 _038_
*74 _039_
*75 _040_
*76 _041_
*77 _042_
*78 _043_
*79 _044_
*80 _045_
*81 _046_
*82 _047_
*83 _048_
*84 _049_
*85 _050_
*86 _051_
*87 _052_
*88 _053_
*89 _054_
*90 _055_
*91 _056_
*92 _057_
*93 _058_
*94 _059_
*95 _060_
*96 _061_
*97 _062_
*98 _063_
*99 _064_
*100 _065_
*101 _066_
*102 _067_
*103 _068_
*104 _069_
*105 _070_
*106 _071_
*107 _072_
*108 _073_
*109 _074_
*110 _075_
*111 _076_
*112 _077_
*113 _078_
*114 _079_
*115 _080_
*116 _081_
*117 _082_
*118 _083_
*119 _084_
*120 _085_
*121 _086_
*122 _087_
*123 _088_
*124 _089_
*125 _090_
*126 _091_
*127 _092_
*128 _093_
*129 _094_
*130 _095_
*131 _096_
*132 _097_
*133 _098_
*134 _099_
*135 _100_
*136 _101_
*137 _102_
*138 _103_
*139 _104_
*140 _105_
*141 _106_
*142 _107_
*143 _108_
*144 _109_
*145 _110_
*146 _111_
*147 _112_
*148 _113_
*149 _114_
*150 _115_
*151 _116_
*152 _117_
*153 _118_
*154 _119_
*155 _120_
*156 _121_
*157 _122_
*158 _123_
*159 _124_
*160 _125_
*161 _126_
*162 _127_
*163 _128_
*164 _129_
*165 _130_
*166 _131_
*167 _132_
*168 _133_
*169 _134_
*170 _135_
*171 _136_
*172 _137_
*173 _138_
*174 _139_
*175 _140_
*176 _141_
*177 _142_
*178 _143_
*179 _144_
*180 _145_
*181 _146_
*182 _147_
*183 _148_
*184 _149_
*185 _150_
*186 _151_
*187 _152_
*188 _153_
*189 _154_
*190 _155_
*191 _156_
*192 _157_
*193 _158_
*194 _159_
*195 _160_
*196 _161_
*197 _162_
*198 _163_
*199 _164_
*200 _165_
*201 _166_
*202 _167_
*203 _168_
*204 _169_
*205 _170_
*206 _171_
*207 _172_
*208 _173_
*209 _174_
*210 _175_
*211 _176_
*212 _177_
*213 _178_
*214 _179_
*215 _180_
*216 _181_
*217 _182_
*218 _183_
*219 _184_
*220 _185_
*221 _186_
*222 _187_
*223 _188_
*224 _189_
*225 _190_
*226 _191_
*227 _192_
*228 _193_
*229 _194_
*230 _195_
*231 _196_
*232 _197_
*233 _198_
*234 _199_
*235 _200_
*236 _201_
*237 _202_
*238 _203_
*239 _204_
*240 _205_
*241 _206_
*242 _207_
*243 _208_
*244 _209_
*245 _210_
*246 _211_
*247 _212_
*248 _213_
*249 _214_
*250 _215_
*251 _216_
*252 _217_
*253 _218_
*254 _219_
*255 _220_
*256 _221_
*257 _222_
*258 _223_
*259 _224_
*260 _225_
*261 _226_
*262 _227_
*263 _228_
*264 _229_
*265 _230_
*266 _231_
*267 _232_
*268 _233_
*269 _234_
*270 _235_
*271 _236_
*272 _237_
*273 _238_
*274 _239_
*275 _240_
*276 _241_
*277 _242_
*278 _243_
*279 _244_
*280 _245_
*281 _246_
*282 _247_
*283 _248_
*284 _249_
*285 _250_
*286 _251_
*287 _252_
*288 _253_
*289 _254_
*290 _255_
*291 _256_
*292 _257_
*293 _258_
*294 _259_
*295 _260_
*296 _261_
*297 _262_
*298 _263_
*299 _264_
*300 _265_
*301 _266_
*302 _267_
*303 _268_
*304 _269_
*305 _270_
*306 _271_
*307 _272_
*308 _273_
*309 _274_
*310 _275_
*311 _276_
*312 net1
*313 net10
*314 net11
*315 net12
*316 net13
*317 net14
*318 net15
*319 net16
*320 net17
*321 net18
*322 net19
*323 net2
*324 net20
*325 net21
*326 net22
*327 net23
*328 net24
*329 net25
*330 net26
*331 net27
*332 net28
*333 net29
*334 net3
*335 net30
*336 net31
*337 net32
*338 net33
*339 net34
*340 net35
*341 net36
*342 net37
*343 net38
*344 net39
*345 net4
*346 net40
*347 net41
*348 net42
*349 net43
*350 net44
*351 net45
*352 net46
*353 net47
*354 net48
*355 net49
*356 net5
*357 net50
*358 net51
*359 net52
*360 net53
*361 net54
*362 net55
*363 net56
*364 net57
*365 net58
*366 net59
*367 net6
*368 net60
*369 net61
*370 net62
*371 net67
*372 net68
*373 net7
*374 net8
*375 net9
*376 FILLER_0_109
*377 FILLER_0_113
*378 FILLER_0_125
*379 FILLER_0_133
*380 FILLER_0_141
*381 FILLER_0_15
*382 FILLER_0_153
*383 FILLER_0_165
*384 FILLER_0_169
*385 FILLER_0_177
*386 FILLER_0_197
*387 FILLER_0_205
*388 FILLER_0_212
*389 FILLER_0_219
*390 FILLER_0_223
*391 FILLER_0_233
*392 FILLER_0_245
*393 FILLER_0_251
*394 FILLER_0_253
*395 FILLER_0_265
*396 FILLER_0_27
*397 FILLER_0_273
*398 FILLER_0_279
*399 FILLER_0_281
*400 FILLER_0_29
*401 FILLER_0_293
*402 FILLER_0_3
*403 FILLER_0_305
*404 FILLER_0_309
*405 FILLER_0_321
*406 FILLER_0_333
*407 FILLER_0_337
*408 FILLER_0_349
*409 FILLER_0_361
*410 FILLER_0_365
*411 FILLER_0_377
*412 FILLER_0_389
*413 FILLER_0_393
*414 FILLER_0_405
*415 FILLER_0_41
*416 FILLER_0_53
*417 FILLER_0_57
*418 FILLER_0_69
*419 FILLER_0_81
*420 FILLER_0_85
*421 FILLER_0_97
*422 FILLER_10_109
*423 FILLER_10_121
*424 FILLER_10_133
*425 FILLER_10_139
*426 FILLER_10_141
*427 FILLER_10_15
*428 FILLER_10_153
*429 FILLER_10_165
*430 FILLER_10_171
*431 FILLER_10_177
*432 FILLER_10_182
*433 FILLER_10_188
*434 FILLER_10_197
*435 FILLER_10_209
*436 FILLER_10_221
*437 FILLER_10_229
*438 FILLER_10_244
*439 FILLER_10_253
*440 FILLER_10_265
*441 FILLER_10_27
*442 FILLER_10_277
*443 FILLER_10_289
*444 FILLER_10_29
*445 FILLER_10_3
*446 FILLER_10_301
*447 FILLER_10_307
*448 FILLER_10_309
*449 FILLER_10_321
*450 FILLER_10_333
*451 FILLER_10_345
*452 FILLER_10_357
*453 FILLER_10_363
*454 FILLER_10_365
*455 FILLER_10_377
*456 FILLER_10_389
*457 FILLER_10_401
*458 FILLER_10_41
*459 FILLER_10_53
*460 FILLER_10_65
*461 FILLER_10_77
*462 FILLER_10_83
*463 FILLER_10_85
*464 FILLER_10_97
*465 FILLER_11_105
*466 FILLER_11_111
*467 FILLER_11_113
*468 FILLER_11_125
*469 FILLER_11_137
*470 FILLER_11_149
*471 FILLER_11_15
*472 FILLER_11_161
*473 FILLER_11_167
*474 FILLER_11_169
*475 FILLER_11_181
*476 FILLER_11_193
*477 FILLER_11_205
*478 FILLER_11_213
*479 FILLER_11_222
*480 FILLER_11_225
*481 FILLER_11_237
*482 FILLER_11_249
*483 FILLER_11_261
*484 FILLER_11_27
*485 FILLER_11_273
*486 FILLER_11_279
*487 FILLER_11_281
*488 FILLER_11_293
*489 FILLER_11_3
*490 FILLER_11_305
*491 FILLER_11_317
*492 FILLER_11_329
*493 FILLER_11_335
*494 FILLER_11_337
*495 FILLER_11_349
*496 FILLER_11_361
*497 FILLER_11_373
*498 FILLER_11_385
*499 FILLER_11_39
*500 FILLER_11_391
*501 FILLER_11_393
*502 FILLER_11_405
*503 FILLER_11_51
*504 FILLER_11_55
*505 FILLER_11_57
*506 FILLER_11_69
*507 FILLER_11_81
*508 FILLER_11_93
*509 FILLER_12_109
*510 FILLER_12_121
*511 FILLER_12_133
*512 FILLER_12_139
*513 FILLER_12_141
*514 FILLER_12_15
*515 FILLER_12_153
*516 FILLER_12_165
*517 FILLER_12_177
*518 FILLER_12_189
*519 FILLER_12_195
*520 FILLER_12_197
*521 FILLER_12_209
*522 FILLER_12_221
*523 FILLER_12_233
*524 FILLER_12_245
*525 FILLER_12_251
*526 FILLER_12_253
*527 FILLER_12_262
*528 FILLER_12_27
*529 FILLER_12_274
*530 FILLER_12_286
*531 FILLER_12_29
*532 FILLER_12_298
*533 FILLER_12_3
*534 FILLER_12_306
*535 FILLER_12_309
*536 FILLER_12_321
*537 FILLER_12_333
*538 FILLER_12_345
*539 FILLER_12_357
*540 FILLER_12_363
*541 FILLER_12_365
*542 FILLER_12_377
*543 FILLER_12_389
*544 FILLER_12_401
*545 FILLER_12_41
*546 FILLER_12_53
*547 FILLER_12_65
*548 FILLER_12_77
*549 FILLER_12_83
*550 FILLER_12_85
*551 FILLER_12_97
*552 FILLER_13_105
*553 FILLER_13_111
*554 FILLER_13_113
*555 FILLER_13_125
*556 FILLER_13_137
*557 FILLER_13_149
*558 FILLER_13_15
*559 FILLER_13_161
*560 FILLER_13_167
*561 FILLER_13_169
*562 FILLER_13_181
*563 FILLER_13_189
*564 FILLER_13_199
*565 FILLER_13_205
*566 FILLER_13_213
*567 FILLER_13_221
*568 FILLER_13_225
*569 FILLER_13_237
*570 FILLER_13_249
*571 FILLER_13_263
*572 FILLER_13_27
*573 FILLER_13_277
*574 FILLER_13_281
*575 FILLER_13_293
*576 FILLER_13_3
*577 FILLER_13_305
*578 FILLER_13_317
*579 FILLER_13_329
*580 FILLER_13_335
*581 FILLER_13_337
*582 FILLER_13_349
*583 FILLER_13_361
*584 FILLER_13_373
*585 FILLER_13_385
*586 FILLER_13_39
*587 FILLER_13_391
*588 FILLER_13_393
*589 FILLER_13_405
*590 FILLER_13_51
*591 FILLER_13_55
*592 FILLER_13_57
*593 FILLER_13_69
*594 FILLER_13_81
*595 FILLER_13_93
*596 FILLER_14_109
*597 FILLER_14_121
*598 FILLER_14_133
*599 FILLER_14_139
*600 FILLER_14_141
*601 FILLER_14_15
*602 FILLER_14_153
*603 FILLER_14_165
*604 FILLER_14_177
*605 FILLER_14_189
*606 FILLER_14_195
*607 FILLER_14_197
*608 FILLER_14_205
*609 FILLER_14_213
*610 FILLER_14_217
*611 FILLER_14_240
*612 FILLER_14_246
*613 FILLER_14_27
*614 FILLER_14_278
*615 FILLER_14_29
*616 FILLER_14_290
*617 FILLER_14_3
*618 FILLER_14_302
*619 FILLER_14_309
*620 FILLER_14_321
*621 FILLER_14_333
*622 FILLER_14_345
*623 FILLER_14_357
*624 FILLER_14_363
*625 FILLER_14_365
*626 FILLER_14_377
*627 FILLER_14_389
*628 FILLER_14_401
*629 FILLER_14_41
*630 FILLER_14_53
*631 FILLER_14_65
*632 FILLER_14_77
*633 FILLER_14_83
*634 FILLER_14_85
*635 FILLER_14_97
*636 FILLER_15_105
*637 FILLER_15_111
*638 FILLER_15_113
*639 FILLER_15_125
*640 FILLER_15_137
*641 FILLER_15_149
*642 FILLER_15_15
*643 FILLER_15_161
*644 FILLER_15_167
*645 FILLER_15_169
*646 FILLER_15_181
*647 FILLER_15_193
*648 FILLER_15_210
*649 FILLER_15_214
*650 FILLER_15_223
*651 FILLER_15_225
*652 FILLER_15_237
*653 FILLER_15_257
*654 FILLER_15_265
*655 FILLER_15_27
*656 FILLER_15_273
*657 FILLER_15_279
*658 FILLER_15_281
*659 FILLER_15_293
*660 FILLER_15_3
*661 FILLER_15_305
*662 FILLER_15_317
*663 FILLER_15_329
*664 FILLER_15_335
*665 FILLER_15_337
*666 FILLER_15_349
*667 FILLER_15_361
*668 FILLER_15_373
*669 FILLER_15_385
*670 FILLER_15_39
*671 FILLER_15_391
*672 FILLER_15_393
*673 FILLER_15_405
*674 FILLER_15_51
*675 FILLER_15_55
*676 FILLER_15_57
*677 FILLER_15_69
*678 FILLER_15_81
*679 FILLER_15_93
*680 FILLER_16_109
*681 FILLER_16_121
*682 FILLER_16_133
*683 FILLER_16_139
*684 FILLER_16_141
*685 FILLER_16_15
*686 FILLER_16_153
*687 FILLER_16_165
*688 FILLER_16_177
*689 FILLER_16_189
*690 FILLER_16_195
*691 FILLER_16_197
*692 FILLER_16_222
*693 FILLER_16_234
*694 FILLER_16_246
*695 FILLER_16_253
*696 FILLER_16_27
*697 FILLER_16_287
*698 FILLER_16_29
*699 FILLER_16_299
*700 FILLER_16_3
*701 FILLER_16_307
*702 FILLER_16_309
*703 FILLER_16_321
*704 FILLER_16_333
*705 FILLER_16_345
*706 FILLER_16_357
*707 FILLER_16_363
*708 FILLER_16_365
*709 FILLER_16_377
*710 FILLER_16_389
*711 FILLER_16_401
*712 FILLER_16_41
*713 FILLER_16_53
*714 FILLER_16_65
*715 FILLER_16_77
*716 FILLER_16_83
*717 FILLER_16_85
*718 FILLER_16_97
*719 FILLER_17_105
*720 FILLER_17_111
*721 FILLER_17_113
*722 FILLER_17_125
*723 FILLER_17_137
*724 FILLER_17_149
*725 FILLER_17_15
*726 FILLER_17_161
*727 FILLER_17_167
*728 FILLER_17_169
*729 FILLER_17_181
*730 FILLER_17_193
*731 FILLER_17_205
*732 FILLER_17_215
*733 FILLER_17_223
*734 FILLER_17_225
*735 FILLER_17_233
*736 FILLER_17_238
*737 FILLER_17_250
*738 FILLER_17_262
*739 FILLER_17_27
*740 FILLER_17_274
*741 FILLER_17_281
*742 FILLER_17_293
*743 FILLER_17_3
*744 FILLER_17_305
*745 FILLER_17_317
*746 FILLER_17_329
*747 FILLER_17_335
*748 FILLER_17_337
*749 FILLER_17_349
*750 FILLER_17_361
*751 FILLER_17_373
*752 FILLER_17_385
*753 FILLER_17_39
*754 FILLER_17_391
*755 FILLER_17_393
*756 FILLER_17_405
*757 FILLER_17_51
*758 FILLER_17_55
*759 FILLER_17_57
*760 FILLER_17_69
*761 FILLER_17_81
*762 FILLER_17_93
*763 FILLER_18_109
*764 FILLER_18_121
*765 FILLER_18_133
*766 FILLER_18_139
*767 FILLER_18_141
*768 FILLER_18_15
*769 FILLER_18_153
*770 FILLER_18_165
*771 FILLER_18_177
*772 FILLER_18_189
*773 FILLER_18_195
*774 FILLER_18_197
*775 FILLER_18_209
*776 FILLER_18_221
*777 FILLER_18_227
*778 FILLER_18_235
*779 FILLER_18_247
*780 FILLER_18_251
*781 FILLER_18_253
*782 FILLER_18_265
*783 FILLER_18_27
*784 FILLER_18_277
*785 FILLER_18_289
*786 FILLER_18_29
*787 FILLER_18_3
*788 FILLER_18_301
*789 FILLER_18_307
*790 FILLER_18_309
*791 FILLER_18_321
*792 FILLER_18_333
*793 FILLER_18_345
*794 FILLER_18_357
*795 FILLER_18_363
*796 FILLER_18_365
*797 FILLER_18_377
*798 FILLER_18_389
*799 FILLER_18_401
*800 FILLER_18_41
*801 FILLER_18_53
*802 FILLER_18_65
*803 FILLER_18_77
*804 FILLER_18_83
*805 FILLER_18_85
*806 FILLER_18_97
*807 FILLER_19_105
*808 FILLER_19_111
*809 FILLER_19_113
*810 FILLER_19_122
*811 FILLER_19_128
*812 FILLER_19_140
*813 FILLER_19_15
*814 FILLER_19_152
*815 FILLER_19_166
*816 FILLER_19_175
*817 FILLER_19_182
*818 FILLER_19_188
*819 FILLER_19_200
*820 FILLER_19_212
*821 FILLER_19_225
*822 FILLER_19_237
*823 FILLER_19_241
*824 FILLER_19_264
*825 FILLER_19_27
*826 FILLER_19_276
*827 FILLER_19_281
*828 FILLER_19_293
*829 FILLER_19_3
*830 FILLER_19_305
*831 FILLER_19_317
*832 FILLER_19_329
*833 FILLER_19_335
*834 FILLER_19_337
*835 FILLER_19_349
*836 FILLER_19_361
*837 FILLER_19_373
*838 FILLER_19_385
*839 FILLER_19_39
*840 FILLER_19_391
*841 FILLER_19_393
*842 FILLER_19_405
*843 FILLER_19_51
*844 FILLER_19_55
*845 FILLER_19_57
*846 FILLER_19_69
*847 FILLER_19_81
*848 FILLER_19_93
*849 FILLER_1_105
*850 FILLER_1_111
*851 FILLER_1_113
*852 FILLER_1_125
*853 FILLER_1_137
*854 FILLER_1_149
*855 FILLER_1_15
*856 FILLER_1_161
*857 FILLER_1_167
*858 FILLER_1_169
*859 FILLER_1_181
*860 FILLER_1_189
*861 FILLER_1_196
*862 FILLER_1_208
*863 FILLER_1_220
*864 FILLER_1_225
*865 FILLER_1_237
*866 FILLER_1_249
*867 FILLER_1_261
*868 FILLER_1_27
*869 FILLER_1_273
*870 FILLER_1_279
*871 FILLER_1_281
*872 FILLER_1_293
*873 FILLER_1_3
*874 FILLER_1_305
*875 FILLER_1_317
*876 FILLER_1_329
*877 FILLER_1_335
*878 FILLER_1_337
*879 FILLER_1_349
*880 FILLER_1_361
*881 FILLER_1_373
*882 FILLER_1_385
*883 FILLER_1_39
*884 FILLER_1_391
*885 FILLER_1_393
*886 FILLER_1_405
*887 FILLER_1_51
*888 FILLER_1_55
*889 FILLER_1_57
*890 FILLER_1_69
*891 FILLER_1_81
*892 FILLER_1_93
*893 FILLER_20_108
*894 FILLER_20_120
*895 FILLER_20_139
*896 FILLER_20_15
*897 FILLER_20_153
*898 FILLER_20_163
*899 FILLER_20_181
*900 FILLER_20_195
*901 FILLER_20_197
*902 FILLER_20_209
*903 FILLER_20_221
*904 FILLER_20_233
*905 FILLER_20_245
*906 FILLER_20_251
*907 FILLER_20_253
*908 FILLER_20_265
*909 FILLER_20_27
*910 FILLER_20_277
*911 FILLER_20_289
*912 FILLER_20_29
*913 FILLER_20_3
*914 FILLER_20_301
*915 FILLER_20_307
*916 FILLER_20_309
*917 FILLER_20_321
*918 FILLER_20_333
*919 FILLER_20_345
*920 FILLER_20_357
*921 FILLER_20_363
*922 FILLER_20_365
*923 FILLER_20_377
*924 FILLER_20_389
*925 FILLER_20_401
*926 FILLER_20_41
*927 FILLER_20_53
*928 FILLER_20_65
*929 FILLER_20_77
*930 FILLER_20_83
*931 FILLER_20_85
*932 FILLER_20_93
*933 FILLER_21_101
*934 FILLER_21_111
*935 FILLER_21_113
*936 FILLER_21_125
*937 FILLER_21_137
*938 FILLER_21_149
*939 FILLER_21_15
*940 FILLER_21_157
*941 FILLER_21_161
*942 FILLER_21_167
*943 FILLER_21_169
*944 FILLER_21_176
*945 FILLER_21_188
*946 FILLER_21_199
*947 FILLER_21_214
*948 FILLER_21_222
*949 FILLER_21_225
*950 FILLER_21_237
*951 FILLER_21_249
*952 FILLER_21_261
*953 FILLER_21_27
*954 FILLER_21_273
*955 FILLER_21_279
*956 FILLER_21_281
*957 FILLER_21_293
*958 FILLER_21_3
*959 FILLER_21_305
*960 FILLER_21_317
*961 FILLER_21_329
*962 FILLER_21_335
*963 FILLER_21_337
*964 FILLER_21_349
*965 FILLER_21_361
*966 FILLER_21_373
*967 FILLER_21_385
*968 FILLER_21_39
*969 FILLER_21_391
*970 FILLER_21_393
*971 FILLER_21_405
*972 FILLER_21_51
*973 FILLER_21_55
*974 FILLER_21_57
*975 FILLER_21_69
*976 FILLER_21_81
*977 FILLER_21_93
*978 FILLER_22_112
*979 FILLER_22_127
*980 FILLER_22_139
*981 FILLER_22_141
*982 FILLER_22_15
*983 FILLER_22_153
*984 FILLER_22_165
*985 FILLER_22_177
*986 FILLER_22_189
*987 FILLER_22_195
*988 FILLER_22_197
*989 FILLER_22_209
*990 FILLER_22_221
*991 FILLER_22_233
*992 FILLER_22_245
*993 FILLER_22_251
*994 FILLER_22_253
*995 FILLER_22_265
*996 FILLER_22_27
*997 FILLER_22_287
*998 FILLER_22_29
*999 FILLER_22_299
*1000 FILLER_22_3
*1001 FILLER_22_307
*1002 FILLER_22_309
*1003 FILLER_22_321
*1004 FILLER_22_333
*1005 FILLER_22_345
*1006 FILLER_22_357
*1007 FILLER_22_363
*1008 FILLER_22_365
*1009 FILLER_22_377
*1010 FILLER_22_389
*1011 FILLER_22_401
*1012 FILLER_22_41
*1013 FILLER_22_53
*1014 FILLER_22_65
*1015 FILLER_22_77
*1016 FILLER_22_83
*1017 FILLER_22_85
*1018 FILLER_23_107
*1019 FILLER_23_111
*1020 FILLER_23_113
*1021 FILLER_23_125
*1022 FILLER_23_137
*1023 FILLER_23_149
*1024 FILLER_23_15
*1025 FILLER_23_161
*1026 FILLER_23_167
*1027 FILLER_23_169
*1028 FILLER_23_181
*1029 FILLER_23_193
*1030 FILLER_23_205
*1031 FILLER_23_217
*1032 FILLER_23_223
*1033 FILLER_23_228
*1034 FILLER_23_240
*1035 FILLER_23_252
*1036 FILLER_23_264
*1037 FILLER_23_27
*1038 FILLER_23_276
*1039 FILLER_23_291
*1040 FILLER_23_3
*1041 FILLER_23_303
*1042 FILLER_23_315
*1043 FILLER_23_327
*1044 FILLER_23_335
*1045 FILLER_23_337
*1046 FILLER_23_349
*1047 FILLER_23_361
*1048 FILLER_23_373
*1049 FILLER_23_385
*1050 FILLER_23_39
*1051 FILLER_23_391
*1052 FILLER_23_393
*1053 FILLER_23_405
*1054 FILLER_23_51
*1055 FILLER_23_55
*1056 FILLER_23_57
*1057 FILLER_23_69
*1058 FILLER_23_81
*1059 FILLER_23_89
*1060 FILLER_23_95
*1061 FILLER_24_106
*1062 FILLER_24_118
*1063 FILLER_24_130
*1064 FILLER_24_138
*1065 FILLER_24_141
*1066 FILLER_24_15
*1067 FILLER_24_153
*1068 FILLER_24_165
*1069 FILLER_24_172
*1070 FILLER_24_180
*1071 FILLER_24_188
*1072 FILLER_24_197
*1073 FILLER_24_209
*1074 FILLER_24_213
*1075 FILLER_24_224
*1076 FILLER_24_236
*1077 FILLER_24_248
*1078 FILLER_24_269
*1079 FILLER_24_27
*1080 FILLER_24_281
*1081 FILLER_24_289
*1082 FILLER_24_29
*1083 FILLER_24_3
*1084 FILLER_24_301
*1085 FILLER_24_307
*1086 FILLER_24_309
*1087 FILLER_24_321
*1088 FILLER_24_333
*1089 FILLER_24_345
*1090 FILLER_24_357
*1091 FILLER_24_363
*1092 FILLER_24_365
*1093 FILLER_24_377
*1094 FILLER_24_389
*1095 FILLER_24_401
*1096 FILLER_24_41
*1097 FILLER_24_53
*1098 FILLER_24_65
*1099 FILLER_24_77
*1100 FILLER_24_83
*1101 FILLER_24_85
*1102 FILLER_25_105
*1103 FILLER_25_109
*1104 FILLER_25_113
*1105 FILLER_25_125
*1106 FILLER_25_137
*1107 FILLER_25_149
*1108 FILLER_25_15
*1109 FILLER_25_157
*1110 FILLER_25_166
*1111 FILLER_25_169
*1112 FILLER_25_181
*1113 FILLER_25_193
*1114 FILLER_25_205
*1115 FILLER_25_217
*1116 FILLER_25_223
*1117 FILLER_25_225
*1118 FILLER_25_229
*1119 FILLER_25_233
*1120 FILLER_25_253
*1121 FILLER_25_265
*1122 FILLER_25_27
*1123 FILLER_25_277
*1124 FILLER_25_281
*1125 FILLER_25_293
*1126 FILLER_25_3
*1127 FILLER_25_305
*1128 FILLER_25_317
*1129 FILLER_25_329
*1130 FILLER_25_335
*1131 FILLER_25_337
*1132 FILLER_25_349
*1133 FILLER_25_361
*1134 FILLER_25_373
*1135 FILLER_25_385
*1136 FILLER_25_39
*1137 FILLER_25_391
*1138 FILLER_25_393
*1139 FILLER_25_405
*1140 FILLER_25_51
*1141 FILLER_25_55
*1142 FILLER_25_57
*1143 FILLER_25_69
*1144 FILLER_25_81
*1145 FILLER_25_93
*1146 FILLER_26_102
*1147 FILLER_26_114
*1148 FILLER_26_120
*1149 FILLER_26_126
*1150 FILLER_26_138
*1151 FILLER_26_141
*1152 FILLER_26_15
*1153 FILLER_26_153
*1154 FILLER_26_161
*1155 FILLER_26_167
*1156 FILLER_26_179
*1157 FILLER_26_191
*1158 FILLER_26_195
*1159 FILLER_26_197
*1160 FILLER_26_209
*1161 FILLER_26_221
*1162 FILLER_26_233
*1163 FILLER_26_245
*1164 FILLER_26_251
*1165 FILLER_26_253
*1166 FILLER_26_265
*1167 FILLER_26_27
*1168 FILLER_26_279
*1169 FILLER_26_29
*1170 FILLER_26_291
*1171 FILLER_26_3
*1172 FILLER_26_303
*1173 FILLER_26_307
*1174 FILLER_26_309
*1175 FILLER_26_321
*1176 FILLER_26_333
*1177 FILLER_26_345
*1178 FILLER_26_357
*1179 FILLER_26_363
*1180 FILLER_26_365
*1181 FILLER_26_377
*1182 FILLER_26_389
*1183 FILLER_26_401
*1184 FILLER_26_41
*1185 FILLER_26_53
*1186 FILLER_26_65
*1187 FILLER_26_77
*1188 FILLER_26_83
*1189 FILLER_26_85
*1190 FILLER_26_93
*1191 FILLER_27_105
*1192 FILLER_27_111
*1193 FILLER_27_113
*1194 FILLER_27_138
*1195 FILLER_27_144
*1196 FILLER_27_15
*1197 FILLER_27_150
*1198 FILLER_27_162
*1199 FILLER_27_175
*1200 FILLER_27_187
*1201 FILLER_27_195
*1202 FILLER_27_211
*1203 FILLER_27_223
*1204 FILLER_27_225
*1205 FILLER_27_231
*1206 FILLER_27_243
*1207 FILLER_27_255
*1208 FILLER_27_267
*1209 FILLER_27_27
*1210 FILLER_27_279
*1211 FILLER_27_281
*1212 FILLER_27_293
*1213 FILLER_27_3
*1214 FILLER_27_308
*1215 FILLER_27_320
*1216 FILLER_27_332
*1217 FILLER_27_337
*1218 FILLER_27_349
*1219 FILLER_27_361
*1220 FILLER_27_373
*1221 FILLER_27_385
*1222 FILLER_27_39
*1223 FILLER_27_391
*1224 FILLER_27_393
*1225 FILLER_27_405
*1226 FILLER_27_51
*1227 FILLER_27_55
*1228 FILLER_27_57
*1229 FILLER_27_69
*1230 FILLER_27_81
*1231 FILLER_27_93
*1232 FILLER_28_109
*1233 FILLER_28_120
*1234 FILLER_28_132
*1235 FILLER_28_141
*1236 FILLER_28_15
*1237 FILLER_28_153
*1238 FILLER_28_159
*1239 FILLER_28_173
*1240 FILLER_28_185
*1241 FILLER_28_193
*1242 FILLER_28_197
*1243 FILLER_28_209
*1244 FILLER_28_221
*1245 FILLER_28_233
*1246 FILLER_28_245
*1247 FILLER_28_251
*1248 FILLER_28_253
*1249 FILLER_28_265
*1250 FILLER_28_27
*1251 FILLER_28_277
*1252 FILLER_28_289
*1253 FILLER_28_29
*1254 FILLER_28_3
*1255 FILLER_28_301
*1256 FILLER_28_307
*1257 FILLER_28_309
*1258 FILLER_28_321
*1259 FILLER_28_333
*1260 FILLER_28_345
*1261 FILLER_28_357
*1262 FILLER_28_363
*1263 FILLER_28_365
*1264 FILLER_28_377
*1265 FILLER_28_389
*1266 FILLER_28_401
*1267 FILLER_28_41
*1268 FILLER_28_53
*1269 FILLER_28_65
*1270 FILLER_28_73
*1271 FILLER_28_77
*1272 FILLER_28_83
*1273 FILLER_28_85
*1274 FILLER_28_97
*1275 FILLER_29_105
*1276 FILLER_29_111
*1277 FILLER_29_113
*1278 FILLER_29_125
*1279 FILLER_29_137
*1280 FILLER_29_149
*1281 FILLER_29_15
*1282 FILLER_29_161
*1283 FILLER_29_167
*1284 FILLER_29_169
*1285 FILLER_29_181
*1286 FILLER_29_193
*1287 FILLER_29_205
*1288 FILLER_29_219
*1289 FILLER_29_223
*1290 FILLER_29_225
*1291 FILLER_29_237
*1292 FILLER_29_249
*1293 FILLER_29_260
*1294 FILLER_29_27
*1295 FILLER_29_272
*1296 FILLER_29_288
*1297 FILLER_29_3
*1298 FILLER_29_300
*1299 FILLER_29_312
*1300 FILLER_29_324
*1301 FILLER_29_337
*1302 FILLER_29_349
*1303 FILLER_29_361
*1304 FILLER_29_373
*1305 FILLER_29_385
*1306 FILLER_29_39
*1307 FILLER_29_391
*1308 FILLER_29_393
*1309 FILLER_29_401
*1310 FILLER_29_51
*1311 FILLER_29_55
*1312 FILLER_29_57
*1313 FILLER_29_69
*1314 FILLER_29_81
*1315 FILLER_29_93
*1316 FILLER_2_109
*1317 FILLER_2_121
*1318 FILLER_2_133
*1319 FILLER_2_139
*1320 FILLER_2_141
*1321 FILLER_2_15
*1322 FILLER_2_153
*1323 FILLER_2_165
*1324 FILLER_2_213
*1325 FILLER_2_221
*1326 FILLER_2_227
*1327 FILLER_2_242
*1328 FILLER_2_250
*1329 FILLER_2_253
*1330 FILLER_2_265
*1331 FILLER_2_27
*1332 FILLER_2_277
*1333 FILLER_2_289
*1334 FILLER_2_29
*1335 FILLER_2_3
*1336 FILLER_2_301
*1337 FILLER_2_307
*1338 FILLER_2_309
*1339 FILLER_2_321
*1340 FILLER_2_333
*1341 FILLER_2_345
*1342 FILLER_2_357
*1343 FILLER_2_363
*1344 FILLER_2_365
*1345 FILLER_2_377
*1346 FILLER_2_389
*1347 FILLER_2_401
*1348 FILLER_2_41
*1349 FILLER_2_53
*1350 FILLER_2_65
*1351 FILLER_2_77
*1352 FILLER_2_83
*1353 FILLER_2_85
*1354 FILLER_2_97
*1355 FILLER_30_109
*1356 FILLER_30_121
*1357 FILLER_30_133
*1358 FILLER_30_139
*1359 FILLER_30_141
*1360 FILLER_30_15
*1361 FILLER_30_153
*1362 FILLER_30_165
*1363 FILLER_30_177
*1364 FILLER_30_189
*1365 FILLER_30_195
*1366 FILLER_30_197
*1367 FILLER_30_209
*1368 FILLER_30_217
*1369 FILLER_30_225
*1370 FILLER_30_242
*1371 FILLER_30_250
*1372 FILLER_30_253
*1373 FILLER_30_267
*1374 FILLER_30_27
*1375 FILLER_30_279
*1376 FILLER_30_29
*1377 FILLER_30_291
*1378 FILLER_30_3
*1379 FILLER_30_303
*1380 FILLER_30_307
*1381 FILLER_30_309
*1382 FILLER_30_321
*1383 FILLER_30_333
*1384 FILLER_30_345
*1385 FILLER_30_357
*1386 FILLER_30_363
*1387 FILLER_30_365
*1388 FILLER_30_377
*1389 FILLER_30_389
*1390 FILLER_30_401
*1391 FILLER_30_41
*1392 FILLER_30_53
*1393 FILLER_30_65
*1394 FILLER_30_77
*1395 FILLER_30_83
*1396 FILLER_30_85
*1397 FILLER_30_97
*1398 FILLER_31_101
*1399 FILLER_31_109
*1400 FILLER_31_113
*1401 FILLER_31_125
*1402 FILLER_31_137
*1403 FILLER_31_149
*1404 FILLER_31_15
*1405 FILLER_31_161
*1406 FILLER_31_167
*1407 FILLER_31_169
*1408 FILLER_31_175
*1409 FILLER_31_181
*1410 FILLER_31_193
*1411 FILLER_31_201
*1412 FILLER_31_209
*1413 FILLER_31_221
*1414 FILLER_31_225
*1415 FILLER_31_232
*1416 FILLER_31_241
*1417 FILLER_31_253
*1418 FILLER_31_265
*1419 FILLER_31_27
*1420 FILLER_31_281
*1421 FILLER_31_293
*1422 FILLER_31_3
*1423 FILLER_31_305
*1424 FILLER_31_317
*1425 FILLER_31_329
*1426 FILLER_31_335
*1427 FILLER_31_337
*1428 FILLER_31_349
*1429 FILLER_31_361
*1430 FILLER_31_373
*1431 FILLER_31_385
*1432 FILLER_31_39
*1433 FILLER_31_391
*1434 FILLER_31_393
*1435 FILLER_31_401
*1436 FILLER_31_47
*1437 FILLER_31_51
*1438 FILLER_31_55
*1439 FILLER_31_57
*1440 FILLER_31_68
*1441 FILLER_31_80
*1442 FILLER_31_92
*1443 FILLER_32_114
*1444 FILLER_32_126
*1445 FILLER_32_138
*1446 FILLER_32_141
*1447 FILLER_32_15
*1448 FILLER_32_156
*1449 FILLER_32_168
*1450 FILLER_32_179
*1451 FILLER_32_191
*1452 FILLER_32_197
*1453 FILLER_32_231
*1454 FILLER_32_240
*1455 FILLER_32_253
*1456 FILLER_32_265
*1457 FILLER_32_27
*1458 FILLER_32_277
*1459 FILLER_32_282
*1460 FILLER_32_29
*1461 FILLER_32_291
*1462 FILLER_32_3
*1463 FILLER_32_303
*1464 FILLER_32_307
*1465 FILLER_32_309
*1466 FILLER_32_321
*1467 FILLER_32_333
*1468 FILLER_32_345
*1469 FILLER_32_357
*1470 FILLER_32_363
*1471 FILLER_32_365
*1472 FILLER_32_377
*1473 FILLER_32_389
*1474 FILLER_32_401
*1475 FILLER_32_41
*1476 FILLER_32_56
*1477 FILLER_32_77
*1478 FILLER_32_83
*1479 FILLER_32_85
*1480 FILLER_32_89
*1481 FILLER_32_97
*1482 FILLER_33_111
*1483 FILLER_33_113
*1484 FILLER_33_125
*1485 FILLER_33_137
*1486 FILLER_33_149
*1487 FILLER_33_15
*1488 FILLER_33_169
*1489 FILLER_33_181
*1490 FILLER_33_193
*1491 FILLER_33_211
*1492 FILLER_33_223
*1493 FILLER_33_225
*1494 FILLER_33_237
*1495 FILLER_33_251
*1496 FILLER_33_255
*1497 FILLER_33_267
*1498 FILLER_33_27
*1499 FILLER_33_279
*1500 FILLER_33_281
*1501 FILLER_33_293
*1502 FILLER_33_297
*1503 FILLER_33_3
*1504 FILLER_33_311
*1505 FILLER_33_323
*1506 FILLER_33_335
*1507 FILLER_33_337
*1508 FILLER_33_349
*1509 FILLER_33_361
*1510 FILLER_33_373
*1511 FILLER_33_385
*1512 FILLER_33_39
*1513 FILLER_33_391
*1514 FILLER_33_393
*1515 FILLER_33_405
*1516 FILLER_33_53
*1517 FILLER_33_62
*1518 FILLER_33_70
*1519 FILLER_33_74
*1520 FILLER_33_86
*1521 FILLER_33_90
*1522 FILLER_33_99
*1523 FILLER_34_100
*1524 FILLER_34_112
*1525 FILLER_34_124
*1526 FILLER_34_136
*1527 FILLER_34_141
*1528 FILLER_34_15
*1529 FILLER_34_156
*1530 FILLER_34_168
*1531 FILLER_34_185
*1532 FILLER_34_191
*1533 FILLER_34_195
*1534 FILLER_34_207
*1535 FILLER_34_219
*1536 FILLER_34_23
*1537 FILLER_34_231
*1538 FILLER_34_243
*1539 FILLER_34_251
*1540 FILLER_34_253
*1541 FILLER_34_265
*1542 FILLER_34_277
*1543 FILLER_34_289
*1544 FILLER_34_3
*1545 FILLER_34_301
*1546 FILLER_34_307
*1547 FILLER_34_309
*1548 FILLER_34_321
*1549 FILLER_34_333
*1550 FILLER_34_345
*1551 FILLER_34_357
*1552 FILLER_34_363
*1553 FILLER_34_365
*1554 FILLER_34_377
*1555 FILLER_34_389
*1556 FILLER_34_401
*1557 FILLER_34_43
*1558 FILLER_34_49
*1559 FILLER_34_59
*1560 FILLER_34_71
*1561 FILLER_34_83
*1562 FILLER_34_88
*1563 FILLER_35_111
*1564 FILLER_35_116
*1565 FILLER_35_128
*1566 FILLER_35_140
*1567 FILLER_35_150
*1568 FILLER_35_162
*1569 FILLER_35_169
*1570 FILLER_35_180
*1571 FILLER_35_19
*1572 FILLER_35_192
*1573 FILLER_35_204
*1574 FILLER_35_216
*1575 FILLER_35_225
*1576 FILLER_35_237
*1577 FILLER_35_249
*1578 FILLER_35_261
*1579 FILLER_35_273
*1580 FILLER_35_279
*1581 FILLER_35_281
*1582 FILLER_35_293
*1583 FILLER_35_305
*1584 FILLER_35_31
*1585 FILLER_35_317
*1586 FILLER_35_329
*1587 FILLER_35_335
*1588 FILLER_35_337
*1589 FILLER_35_349
*1590 FILLER_35_361
*1591 FILLER_35_373
*1592 FILLER_35_385
*1593 FILLER_35_391
*1594 FILLER_35_393
*1595 FILLER_35_405
*1596 FILLER_35_43
*1597 FILLER_35_55
*1598 FILLER_35_57
*1599 FILLER_35_69
*1600 FILLER_35_81
*1601 FILLER_35_89
*1602 FILLER_35_99
*1603 FILLER_36_103
*1604 FILLER_36_111
*1605 FILLER_36_123
*1606 FILLER_36_13
*1607 FILLER_36_135
*1608 FILLER_36_139
*1609 FILLER_36_154
*1610 FILLER_36_166
*1611 FILLER_36_178
*1612 FILLER_36_182
*1613 FILLER_36_194
*1614 FILLER_36_197
*1615 FILLER_36_209
*1616 FILLER_36_217
*1617 FILLER_36_227
*1618 FILLER_36_239
*1619 FILLER_36_251
*1620 FILLER_36_253
*1621 FILLER_36_26
*1622 FILLER_36_265
*1623 FILLER_36_277
*1624 FILLER_36_289
*1625 FILLER_36_29
*1626 FILLER_36_301
*1627 FILLER_36_307
*1628 FILLER_36_309
*1629 FILLER_36_321
*1630 FILLER_36_333
*1631 FILLER_36_345
*1632 FILLER_36_357
*1633 FILLER_36_363
*1634 FILLER_36_365
*1635 FILLER_36_377
*1636 FILLER_36_389
*1637 FILLER_36_401
*1638 FILLER_36_41
*1639 FILLER_36_53
*1640 FILLER_36_65
*1641 FILLER_36_77
*1642 FILLER_36_83
*1643 FILLER_36_85
*1644 FILLER_36_97
*1645 FILLER_37_108
*1646 FILLER_37_113
*1647 FILLER_37_125
*1648 FILLER_37_137
*1649 FILLER_37_149
*1650 FILLER_37_161
*1651 FILLER_37_167
*1652 FILLER_37_169
*1653 FILLER_37_173
*1654 FILLER_37_180
*1655 FILLER_37_184
*1656 FILLER_37_196
*1657 FILLER_37_208
*1658 FILLER_37_215
*1659 FILLER_37_223
*1660 FILLER_37_225
*1661 FILLER_37_237
*1662 FILLER_37_248
*1663 FILLER_37_260
*1664 FILLER_37_272
*1665 FILLER_37_28
*1666 FILLER_37_295
*1667 FILLER_37_307
*1668 FILLER_37_319
*1669 FILLER_37_331
*1670 FILLER_37_335
*1671 FILLER_37_337
*1672 FILLER_37_349
*1673 FILLER_37_361
*1674 FILLER_37_37
*1675 FILLER_37_373
*1676 FILLER_37_385
*1677 FILLER_37_391
*1678 FILLER_37_393
*1679 FILLER_37_405
*1680 FILLER_37_49
*1681 FILLER_37_55
*1682 FILLER_37_57
*1683 FILLER_37_69
*1684 FILLER_37_7
*1685 FILLER_37_81
*1686 FILLER_37_89
*1687 FILLER_37_96
*1688 FILLER_38_100
*1689 FILLER_38_105
*1690 FILLER_38_117
*1691 FILLER_38_129
*1692 FILLER_38_137
*1693 FILLER_38_141
*1694 FILLER_38_147
*1695 FILLER_38_15
*1696 FILLER_38_159
*1697 FILLER_38_171
*1698 FILLER_38_183
*1699 FILLER_38_194
*1700 FILLER_38_197
*1701 FILLER_38_209
*1702 FILLER_38_221
*1703 FILLER_38_233
*1704 FILLER_38_245
*1705 FILLER_38_251
*1706 FILLER_38_253
*1707 FILLER_38_263
*1708 FILLER_38_271
*1709 FILLER_38_286
*1710 FILLER_38_29
*1711 FILLER_38_298
*1712 FILLER_38_3
*1713 FILLER_38_306
*1714 FILLER_38_309