*SPEF "ieee 1481-1999"
*DESIGN "SarsanStepsNada_e8"
*DATE "10:05:27 Friday September 12, 2025"
*VENDOR "The OpenROAD Project"
*PROGRAM "OpenROAD"
*VERSION "edf00dff99f6c40d67a30c0e22a8191c5d2ed9d6"
*DESIGN_FLOW "NAME_SCOPE LOCAL" "PIN_CAP NONE"
*DIVIDER /
*DELIMITER :
*BUS_DELIMITER []
*T_UNIT 1 NS
*C_UNIT 1 PF
*R_UNIT 1 OHM
*L_UNIT 1 HENRY

*NAME_MAP
*1 A[0]
*2 A[1]
*3 B[0]
*4 B[1]
*5 P[0]
*6 P[1]
*7 P[2]
*8 P[3]
*11 _0_
*12 net1
*13 net2
*14 net3
*15 net4
*16 net5
*17 net6
*18 net7
*19 net8
*20 FILLER_0_15
*21 FILLER_0_27
*22 FILLER_0_29
*23 FILLER_0_3
*24 FILLER_0_41
*25 FILLER_0_53
*26 FILLER_0_57
*27 FILLER_0_69
*28 FILLER_1_15
*29 FILLER_1_27
*30 FILLER_1_3
*31 FILLER_1_39
*32 FILLER_1_51
*33 FILLER_1_55
*34 FILLER_1_57
*35 FILLER_1_69
*36 FILLER_2_18
*37 FILLER_2_26
*38 FILLER_2_29
*39 FILLER_2_41
*40 FILLER_2_53
*41 FILLER_2_6
*42 FILLER_2_65
*43 FILLER_2_77
*44 FILLER_3_15
*45 FILLER_3_27
*46 FILLER_3_3
*47 FILLER_3_39
*48 FILLER_3_51
*49 FILLER_3_55
*50 FILLER_3_57
*51 FILLER_3_69
*52 FILLER_4_18
*53 FILLER_4_24
*54 FILLER_4_29
*55 FILLER_4_41
*56 FILLER_4_53
*57 FILLER_4_6
*58 FILLER_4_65
*59 FILLER_4_77
*60 FILLER_5_19
*61 FILLER_5_30
*62 FILLER_5_42
*63 FILLER_5_54
*64 FILLER_5_57
*65 FILLER_5_69
*66 FILLER_5_7
*67 FILLER_6_18
*68 FILLER_6_26
*69 FILLER_6_36
*70 FILLER_6_48
*71 FILLER_6_6
*72 FILLER_6_60
*73 FILLER_6_72
*74 FILLER_6_76
*75 FILLER_7_26
*76 FILLER_7_38
*77 FILLER_7_50
*78 FILLER_7_57
*79 FILLER_7_69
*80 FILLER_7_7
*81 FILLER_8_15
*82 FILLER_8_27
*83 FILLER_8_29
*84 FILLER_8_3
*85 FILLER_8_41
*86 FILLER_8_53
*87 FILLER_8_65
*88 FILLER_8_77
*89 FILLER_9_18
*90 FILLER_9_26
*91 FILLER_9_29
*92 FILLER_9_41
*93 FILLER_9_53
*94 FILLER_9_57
*95 FILLER_9_6
*96 FILLER_9_69
*97 PHY_EDGE_ROW_0_Left_10
*98 PHY_EDGE_ROW_0_Right_0
*99 PHY_EDGE_ROW_1_Left_11
*100 PHY_EDGE_ROW_1_Right_1
*101 PHY_EDGE_ROW_2_Left_12
*102 PHY_EDGE_ROW_2_Right_2
*103 PHY_EDGE_ROW_3_Left_13
*104 PHY_EDGE_ROW_3_Right_3
*105 PHY_EDGE_ROW_4_Left_14
*106 PHY_EDGE_ROW_4_Right_4
*107 PHY_EDGE_ROW_5_Left_15
*108 PHY_EDGE_ROW_5_Right_5
*109 PHY_EDGE_ROW_6_Left_16
*110 PHY_EDGE_ROW_6_Right_6
*111 PHY_EDGE_ROW_7_Left_17
*112 PHY_EDGE_ROW_7_Right_7
*113 PHY_EDGE_ROW_8_Left_18
*114 PHY_EDGE_ROW_8_Right_8
*115 PHY_EDGE_ROW_9_Left_19
*116 PHY_EDGE_ROW_9_Right_9
*117 TAP_TAPCELL_ROW_0_20
*118 TAP_TAPCELL_ROW_0_21
*119 TAP_TAPCELL_ROW_1_22
*120 TAP_TAPCELL_ROW_2_23
*121 TAP_TAPCELL_ROW_3_24
*122 TAP_TAPCELL_ROW_4_25
*123 TAP_TAPCELL_ROW_5_26
*124 TAP_TAPCELL_ROW_6_27
*125 TAP_TAPCELL_ROW_7_28
*126 TAP_TAPCELL_ROW_8_29
*127 TAP_TAPCELL_ROW_9_30
*128 TAP_TAPCELL_ROW_9_31
*129 _1_
*130 _2_
*131 _3_
*132 _4_
*133 _5_
*134 input1
*135 input2
*136 input3
*137 input4
*138 output5
*139 output6
*140 output7
*141 output8

*PORTS
A[0] I
A[1] I
B[0] I
B[1] I
P[0] O
P[1] O
P[2] O
P[3] O

*D_NET *1 0.000666589
*CONN
*P A[0] I
*I *134:A I *D sky130_fd_sc_hd__buf_1
*CAP
1 A[0] 0.000320228
2 *134:A 0
3 *1:17 0.000320228
4 *1:17 *3:17 2.61329e-05
*RES
1 A[0] *1:17 27.1584 
2 *1:17 *134:A 23 
*END

*D_NET *2 0.000731415
*CONN
*P A[1] I
*I *135:A I *D sky130_fd_sc_hd__buf_1
*CAP
1 A[1] 0.000355085
2 *135:A 0.000355085
3 *135:A P[0] 2.12457e-05
4 *135:A *137:A 0
*RES
1 A[1] *135:A 49.5439 
*END

*D_NET *3 0.000747356
*CONN
*P B[0] I
*I *136:A I *D sky130_fd_sc_hd__buf_1
*CAP
1 B[0] 0.000346167
2 *136:A 0
3 *3:17 0.000346167
4 *3:17 P[1] 2.43221e-05
5 *3:17 *6:14 4.56684e-06
6 *1:17 *3:17 2.61329e-05
*RES
1 B[0] *3:17 28.2148 
2 *3:17 *136:A 23 
*END

*D_NET *4 0.000559409
*CONN
*P B[1] I
*I *137:A I *D sky130_fd_sc_hd__buf_1
*CAP
1 B[1] 0.000237608
2 *137:A 0.000237608
3 *137:A P[0] 1.5289e-05
4 *137:A P[1] 1.5289e-05
5 *137:A *5:14 1.59585e-05
6 *137:A *6:14 1.26232e-05
7 *137:A *17:10 2.50347e-05
8 *135:A *137:A 0
*RES
1 B[1] *137:A 47.7832 
*END

*D_NET *5 0.000762608
*CONN
*P P[0] O
*I *138:X O *D sky130_fd_sc_hd__buf_2
*CAP
1 P[0] 7.65184e-05
2 *138:X 0.000278539
3 *5:14 0.000355058
4 *135:A P[0] 2.12457e-05
5 *137:A P[0] 1.5289e-05
6 *137:A *5:14 1.59585e-05
*RES
1 *138:X *5:14 49.9 
2 *5:14 P[0] 0.382667 
*END

*D_NET *6 0.000763907
*CONN
*P P[1] O
*I *139:X O *D sky130_fd_sc_hd__buf_2
*CAP
1 P[1] 7.58295e-05
2 *139:X 0.000277724
3 *6:14 0.000353553
4 *137:A P[1] 1.5289e-05
5 *137:A *6:14 1.26232e-05
6 *3:17 P[1] 2.43221e-05
7 *3:17 *6:14 4.56684e-06
*RES
1 *139:X *6:14 49.9 
2 *6:14 P[1] 0.382667 
*END

*D_NET *7 0.00061075
*CONN
*P P[2] O
*I *140:X O *D sky130_fd_sc_hd__buf_2
*CAP
1 P[2] 0.000261687
2 *140:X 0.000261687
3 P[2] P[3] 8.73764e-05
*RES
1 *140:X P[2] 47.8691 
*END

*D_NET *8 0.000521164
*CONN
*P P[3] O
*I *141:X O *D sky130_fd_sc_hd__buf_2
*CAP
1 P[3] 0.000216894
2 *141:X 0.000216894
3 P[2] P[3] 8.73764e-05
*RES
1 *141:X P[3] 47.1648 
*END

*D_NET *11 0.000720334
*CONN
*I *132:C I *D sky130_fd_sc_hd__and3_1
*I *129:Y O *D sky130_fd_sc_hd__nand2_1
*CAP
1 *132:C 4.69192e-05
2 *129:Y 0.000274251
3 *11:10 0.00032117
4 *132:C *132:B 6.35797e-06
5 *11:10 *12:19 0
6 *11:10 *14:10 1.32939e-05
7 *11:10 *14:21 5.83407e-05
*RES
1 *129:Y *11:10 42.6607 
2 *11:10 *132:C 38.7043 
*END

*D_NET *12 0.00348168
*CONN
*I *130:D I *D sky130_fd_sc_hd__and4_1
*I *133:D I *D sky130_fd_sc_hd__and4_1
*I *129:B I *D sky130_fd_sc_hd__nand2_1
*I *134:X O *D sky130_fd_sc_hd__buf_1
*CAP
1 *130:D 0.000161866
2 *133:D 0.000328598
3 *129:B 0
4 *134:X 0.000583308
5 *12:19 0.000762176
6 *12:10 0.00054507
7 *12:8 0.000856666
8 *130:D *130:B 0
9 *130:D *132:A 3.84694e-05
10 *130:D *15:23 5.26204e-05
11 *133:D *133:A 0.000107001
12 *12:10 *14:21 0
13 *12:19 *130:B 0
14 *12:19 *132:A 4.59027e-05
15 *12:19 *14:21 0
16 *11:10 *12:19 0
*RES
1 *134:X *12:8 45.7679 
2 *12:8 *12:10 4.72286 
3 *12:10 *129:B 38 
4 *12:10 *12:19 5.42714 
5 *12:19 *133:D 43.8621 
6 *12:19 *130:D 41.6664 
*END

*D_NET *13 0.00440247
*CONN
*I *133:C I *D sky130_fd_sc_hd__and4_1
*I *132:B I *D sky130_fd_sc_hd__and3_1
*I *130:C I *D sky130_fd_sc_hd__and4_1
*I *131:A2 I *D sky130_fd_sc_hd__o21ba_1
*I *135:X O *D sky130_fd_sc_hd__buf_1
*CAP
1 *133:C 0
2 *132:B 0.000346301
3 *130:C 0
4 *131:A2 4.73052e-05
5 *135:X 0.000641031
6 *13:34 0.000807458
7 *13:23 0.000641612
8 *13:10 0.000868792
9 *131:A2 *15:23 6.07611e-06
10 *132:B *130:B 6.38845e-05
11 *132:B *14:21 0.000222113
12 *132:B *18:10 1.33439e-05
13 *13:23 *130:A 0.000187129
14 *13:23 *16:8 3.34129e-05
15 *13:34 *130:A 0.000130423
16 *13:34 *130:B 0.000387227
17 *132:C *132:B 6.35797e-06
*RES
1 *135:X *13:10 47.4043 
2 *13:10 *131:A2 38.8493 
3 *13:10 *13:23 18.0036 
4 *13:23 *130:C 23 
5 *13:23 *13:34 23.9279 
6 *13:34 *132:B 44.1936 
7 *13:34 *133:C 38 
*END

*D_NET *14 0.00341403
*CONN
*I *130:B I *D sky130_fd_sc_hd__and4_1
*I *133:B I *D sky130_fd_sc_hd__and4_1
*I *129:A I *D sky130_fd_sc_hd__nand2_1
*I *136:X O *D sky130_fd_sc_hd__buf_1
*CAP
1 *130:B 0.000298333
2 *133:B 0
3 *129:A 0
4 *136:X 0.000558663
5 *14:21 0.00072583
6 *14:10 0.00098616
7 *130:B *130:A 0.00010018
8 *130:D *130:B 0
9 *132:B *130:B 6.38845e-05
10 *132:B *14:21 0.000222113
11 *11:10 *14:10 1.32939e-05
12 *11:10 *14:21 5.83407e-05
13 *12:10 *14:21 0
14 *12:19 *130:B 0
15 *12:19 *14:21 0
16 *13:34 *130:B 0.000387227
*RES
1 *136:X *14:10 32.715 
2 *14:10 *129:A 23 
3 *14:10 *14:21 24.0314 
4 *14:21 *133:B 38 
5 *14:21 *130:B 45.975 
*END

*D_NET *15 0.00364708
*CONN
*I *133:A I *D sky130_fd_sc_hd__and4_1
*I *130:A I *D sky130_fd_sc_hd__and4_1
*I *131:A1 I *D sky130_fd_sc_hd__o21ba_1
*I *132:A I *D sky130_fd_sc_hd__and3_1
*I *137:X O *D sky130_fd_sc_hd__buf_1
*CAP
1 *133:A 0.000393843
2 *130:A 0.000108625
3 *131:A1 0
4 *132:A 0.000362803
5 *137:X 0.000493967
6 *15:23 0.000224335
7 *15:8 0.000478513
8 *15:6 0.00088781
9 *130:A *16:8 2.93845e-05
10 *130:B *130:A 0.00010018
11 *130:D *132:A 3.84694e-05
12 *130:D *15:23 5.26204e-05
13 *131:A2 *15:23 6.07611e-06
14 *133:D *133:A 0.000107001
15 *12:19 *132:A 4.59027e-05
16 *13:23 *130:A 0.000187129
17 *13:34 *130:A 0.000130423
*RES
1 *137:X *15:6 29.3386 
2 *15:6 *15:8 15 
3 *15:8 *132:A 44.7943 
4 *15:8 *15:23 17.2579 
5 *15:23 *131:A1 23 
6 *15:23 *130:A 26.9771 
7 *15:6 *133:A 28.8829 
*END

*D_NET *16 0.000798593
*CONN
*I *131:B1_N I *D sky130_fd_sc_hd__o21ba_1
*I *138:A I *D sky130_fd_sc_hd__buf_2
*I *130:X O *D sky130_fd_sc_hd__and4_1
*CAP
1 *131:B1_N 0
2 *138:A 0.000150644
3 *130:X 0.000172202
4 *16:8 0.000322846
5 *138:A *17:10 9.01041e-05
6 *130:A *16:8 2.93845e-05
7 *13:23 *16:8 3.34129e-05
*RES
1 *130:X *16:8 26.5007 
2 *16:8 *138:A 26.48 
3 *16:8 *131:B1_N 23 
*END

*D_NET *17 0.000958613
*CONN
*I *139:A I *D sky130_fd_sc_hd__buf_2
*I *131:X O *D sky130_fd_sc_hd__o21ba_1
*CAP
1 *139:A 0
2 *131:X 0.000421737
3 *17:10 0.000421737
4 *137:A *17:10 2.50347e-05
5 *138:A *17:10 9.01041e-05
*RES
1 *131:X *17:10 45.25 
2 *17:10 *139:A 38 
*END

*D_NET *18 0.00337359
*CONN
*I *140:A I *D sky130_fd_sc_hd__buf_2
*I *132:X O *D sky130_fd_sc_hd__and3_1
*CAP
1 *140:A 0
2 *132:X 0.00168012
3 *18:10 0.00168012
4 *132:B *18:10 1.33439e-05
*RES
1 *132:X *18:10 47.0079 
2 *18:10 *140:A 23 
*END

*D_NET *19 0.00223397
*CONN
*I *141:A I *D sky130_fd_sc_hd__buf_2
*I *133:X O *D sky130_fd_sc_hd__and4_1
*CAP
1 *141:A 0
2 *133:X 0.00111698
3 *19:6 0.00111698
*RES
1 *133:X *19:6 43.155 
2 *19:6 *141:A 23 
*END
