*SPEF "ieee 1481-1999"
*DESIGN "mult4_SarsaNada_e8_SARSA_RUIDO_e9_SARSA_RUIDO_e9_SARSA_RUIDO_e9"
*DATE "14:38:43 Tuesday September 16, 2025"
*VENDOR "The OpenROAD Project"
*PROGRAM "OpenROAD"
*VERSION "edf00dff99f6c40d67a30c0e22a8191c5d2ed9d6"
*DESIGN_FLOW "NAME_SCOPE LOCAL" "PIN_CAP NONE"
*DIVIDER /
*DELIMITER :
*BUS_DELIMITER []
*T_UNIT 1 NS
*C_UNIT 1 PF
*R_UNIT 1 OHM
*L_UNIT 1 HENRY

*NAME_MAP
*1 A[0]
*2 A[1]
*3 A[2]
*4 A[3]
*5 B[0]
*6 B[1]
*7 B[2]
*8 B[3]
*9 net16
*10 P[1]
*11 P[2]
*12 P[3]
*13 P[4]
*14 P[5]
*15 P[6]
*16 P[7]
*19 _00_
*20 _01_
*21 _02_
*22 _03_
*23 _04_
*24 _05_
*25 _06_
*26 _07_
*27 _08_
*28 _09_
*29 _10_
*30 _11_
*31 _12_
*32 _13_
*33 _14_
*34 _15_
*35 _16_
*36 _17_
*37 _18_
*38 _19_
*39 _20_
*40 _21_
*41 _22_
*42 _23_
*43 _24_
*44 net1
*45 net10
*46 net11
*47 net12
*48 net13
*49 net14
*50 net15
*51 net2
*52 net3
*53 net4
*54 net5
*55 net6
*56 net7
*57 net8
*58 net9
*59 FILLER_0_13
*60 FILLER_0_25
*61 FILLER_0_29
*62 FILLER_0_34
*63 FILLER_0_42
*64 FILLER_0_54
*65 FILLER_0_57
*66 FILLER_0_69
*67 FILLER_1_15
*68 FILLER_1_23
*69 FILLER_1_37
*70 FILLER_1_49
*71 FILLER_1_55
*72 FILLER_1_57
*73 FILLER_1_69
*74 FILLER_1_7
*75 FILLER_1_77
*76 FILLER_2_22
*77 FILLER_2_29
*78 FILLER_2_51
*79 FILLER_2_56
*80 FILLER_2_68
*81 FILLER_2_7
*82 FILLER_2_76
*83 FILLER_3_11
*84 FILLER_3_16
*85 FILLER_3_28
*86 FILLER_3_3
*87 FILLER_3_34
*88 FILLER_3_46
*89 FILLER_3_54
*90 FILLER_3_57
*91 FILLER_3_69
*92 FILLER_4_19
*93 FILLER_4_27
*94 FILLER_4_29
*95 FILLER_4_40
*96 FILLER_4_52
*97 FILLER_4_64
*98 FILLER_4_7
*99 FILLER_4_76
*100 FILLER_4_80
*101 FILLER_5_17
*102 FILLER_5_29
*103 FILLER_5_41
*104 FILLER_5_53
*105 FILLER_5_6
*106 FILLER_5_61
*107 FILLER_5_73
*108 FILLER_6_24
*109 FILLER_6_29
*110 FILLER_6_35
*111 FILLER_6_41
*112 FILLER_6_49
*113 FILLER_6_59
*114 FILLER_6_71
*115 FILLER_7_13
*116 FILLER_7_32
*117 FILLER_7_40
*118 FILLER_7_55
*119 FILLER_7_62
*120 FILLER_7_7
*121 FILLER_7_70
*122 FILLER_7_76
*123 FILLER_8_15
*124 FILLER_8_3
*125 FILLER_8_36
*126 FILLER_8_51
*127 FILLER_8_63
*128 FILLER_8_75
*129 FILLER_9_18
*130 FILLER_9_29
*131 FILLER_9_35
*132 FILLER_9_47
*133 FILLER_9_55
*134 FILLER_9_57
*135 FILLER_9_6
*136 FILLER_9_69
*137 PHY_EDGE_ROW_0_Left_10
*138 PHY_EDGE_ROW_0_Right_0
*139 PHY_EDGE_ROW_1_Left_11
*140 PHY_EDGE_ROW_1_Right_1
*141 PHY_EDGE_ROW_2_Left_12
*142 PHY_EDGE_ROW_2_Right_2
*143 PHY_EDGE_ROW_3_Left_13
*144 PHY_EDGE_ROW_3_Right_3
*145 PHY_EDGE_ROW_4_Left_14
*146 PHY_EDGE_ROW_4_Right_4
*147 PHY_EDGE_ROW_5_Left_15
*148 PHY_EDGE_ROW_5_Right_5
*149 PHY_EDGE_ROW_6_Left_16
*150 PHY_EDGE_ROW_6_Right_6
*151 PHY_EDGE_ROW_7_Left_17
*152 PHY_EDGE_ROW_7_Right_7
*153 PHY_EDGE_ROW_8_Left_18
*154 PHY_EDGE_ROW_8_Right_8
*155 PHY_EDGE_ROW_9_Left_19
*156 PHY_EDGE_ROW_9_Right_9
*157 TAP_TAPCELL_ROW_0_20
*158 TAP_TAPCELL_ROW_0_21
*159 TAP_TAPCELL_ROW_1_22
*160 TAP_TAPCELL_ROW_2_23
*161 TAP_TAPCELL_ROW_3_24
*162 TAP_TAPCELL_ROW_4_25
*163 TAP_TAPCELL_ROW_5_26
*164 TAP_TAPCELL_ROW_6_27
*165 TAP_TAPCELL_ROW_7_28
*166 TAP_TAPCELL_ROW_8_29
*167 TAP_TAPCELL_ROW_9_30
*168 TAP_TAPCELL_ROW_9_31
*169 _25_
*170 _26_
*171 _27_
*172 _28_
*173 _29_
*174 _30_
*175 _31_
*176 _32_
*177 _33_
*178 _34_
*179 _35_
*180 _36_
*181 _37_
*182 _38_
*183 _39_
*184 _40_
*185 _41_
*186 _42_
*187 _43_
*188 _44_
*189 _45_
*190 _46_
*191 _47_
*192 _48_
*193 _49_
*194 _50_
*195 _51_
*196 _52_
*197 _53_
*198 _54_
*199 _55_
*200 _57_
*201 input1
*202 input2
*203 input3
*204 input4
*205 input5
*206 input6
*207 input7
*208 input8
*209 mult4_SarsaNada_e8_SARSA_RUIDO_e9_SARSA_RUIDO_e9_SARSA_RUIDO_e9_16
*210 output10
*211 output11
*212 output12
*213 output13
*214 output14
*215 output15
*216 output9

*PORTS
A[0] I
A[1] I
A[2] I
A[3] I
B[0] I
B[1] I
B[2] I
B[3] I
P[0] O
P[1] O
P[2] O
P[3] O
P[4] O
P[5] O
P[6] O
P[7] O

*D_NET *1 0.000690337
*CONN
*P A[0] I
*I *201:A I *D sky130_fd_sc_hd__dlymetal6s2s_1
*CAP
1 A[0] 0.000332102
2 *201:A 0
3 *1:17 0.000332102
4 *1:17 *3:17 2.61329e-05
*RES
1 A[0] *1:17 27.5105 
2 *1:17 *201:A 23 
*END

*D_NET *2 0.000566435
*CONN
*P A[1] I
*I *202:A I *D sky130_fd_sc_hd__clkbuf_1
*CAP
1 A[1] 0.000255844
2 *202:A 0.000255844
3 *202:A *179:B2 0
4 *202:A *204:A 0
5 *202:A *7:17 2.79122e-05
6 *202:A *8:17 2.12457e-05
7 *202:A *56:53 5.58873e-06
*RES
1 A[1] *202:A 47.7832 
*END

*D_NET *3 0.000717573
*CONN
*P A[2] I
*I *203:A I *D sky130_fd_sc_hd__clkbuf_2
*CAP
1 A[2] 0.000332653
2 *203:A 0
3 *3:17 0.000332653
4 *3:17 P[1] 2.30055e-05
5 *3:17 *10:14 3.12741e-06
6 *1:17 *3:17 2.61329e-05
*RES
1 A[2] *3:17 27.6348 
2 *3:17 *203:A 23 
*END

*D_NET *4 0.000743482
*CONN
*P A[3] I
*I *204:A I *D sky130_fd_sc_hd__buf_1
*CAP
1 A[3] 0.000328183
2 *204:A 0.000328183
3 *204:A *8:17 3.12475e-05
4 *204:A *53:8 5.58694e-05
5 *202:A *204:A 0
*RES
1 A[3] *204:A 49.5439 
*END

*D_NET *5 0.00100701
*CONN
*P B[0] I
*I *205:A I *D sky130_fd_sc_hd__clkbuf_1
*CAP
1 B[0] 0.000493767
2 *205:A 0.000493767
3 *205:A P[2] 0
4 *205:A *54:10 1.94812e-05
*RES
1 B[0] *205:A 48.2743 
*END

*D_NET *6 0.000775317
*CONN
*P B[1] I
*I *206:A I *D sky130_fd_sc_hd__clkbuf_2
*CAP
1 B[1] 0.000358769
2 *206:A 0
3 *6:17 0.000358769
4 *6:17 P[1] 1.5289e-05
5 *6:17 *7:17 2.88889e-05
6 *6:17 *10:14 1.35999e-05
7 *6:17 *56:14 0
*RES
1 B[1] *6:17 28.3391 
2 *6:17 *206:A 23 
*END

*D_NET *7 0.00071699
*CONN
*P B[2] I
*I *207:A I *D sky130_fd_sc_hd__buf_1
*CAP
1 B[2] 0.000330094
2 *207:A 0
3 *7:17 0.000330094
4 *7:17 *56:14 0
5 *202:A *7:17 2.79122e-05
6 *6:17 *7:17 2.88889e-05
*RES
1 B[2] *7:17 27.8627 
2 *7:17 *207:A 23 
*END

*D_NET *8 0.000678043
*CONN
*P B[3] I
*I *208:A I *D sky130_fd_sc_hd__clkbuf_2
*CAP
1 B[3] 0.000312775
2 *208:A 0
3 *8:17 0.000312775
4 *202:A *8:17 2.12457e-05
5 *204:A *8:17 3.12475e-05
*RES
1 B[3] *8:17 27.2827 
2 *8:17 *208:A 23 
*END

*D_NET *9 0.000477183
*CONN
*P P[0] O
*I *209:LO O *D sky130_fd_sc_hd__conb_1
*CAP
1 P[0] 0.000202511
2 *209:LO 0.000202511
3 P[0] P[3] 7.21596e-05
*RES
1 *209:LO P[0] 47.0789 
*END

*D_NET *10 0.000690039
*CONN
*P P[1] O
*I *216:X O *D sky130_fd_sc_hd__buf_2
*CAP
1 P[1] 7.86681e-05
2 *216:X 0.00023884
3 *10:14 0.000317508
4 *3:17 P[1] 2.30055e-05
5 *3:17 *10:14 3.12741e-06
6 *6:17 P[1] 1.5289e-05
7 *6:17 *10:14 1.35999e-05
*RES
1 *216:X *10:14 49.9 
2 *10:14 P[1] 0.382667 
*END

*D_NET *11 0.00100673
*CONN
*P P[2] O
*I *210:X O *D sky130_fd_sc_hd__buf_2
*CAP
1 P[2] 0.000503364
2 *210:X 0.000503364
3 *205:A P[2] 0
*RES
1 *210:X P[2] 47.57 
*END

*D_NET *12 0.000558075
*CONN
*P P[3] O
*I *211:X O *D sky130_fd_sc_hd__buf_2
*CAP
1 P[3] 0.000242958
2 *211:X 0.000242958
3 P[0] P[3] 7.21596e-05
*RES
1 *211:X P[3] 47.5169 
*END

*D_NET *13 0.000530335
*CONN
*P P[4] O
*I *212:X O *D sky130_fd_sc_hd__buf_2
*CAP
1 P[4] 0.000219207
2 *212:X 0.000219207
3 P[4] P[5] 7.91783e-05
4 P[4] *47:10 1.27424e-05
*RES
1 *212:X P[4] 47.1648 
*END

*D_NET *14 0.000516814
*CONN
*P P[5] O
*I *213:X O *D sky130_fd_sc_hd__buf_2
*CAP
1 P[5] 0.000218818
2 *213:X 0.000218818
3 P[4] P[5] 7.91783e-05
*RES
1 *213:X P[5] 47.1648 
*END

*D_NET *15 0.00106861
*CONN
*P P[6] O
*I *214:X O *D sky130_fd_sc_hd__buf_2
*CAP
1 P[6] 0.000534304
2 *214:X 0.000534304
3 P[6] P[7] 0
*RES
1 *214:X P[6] 49.1236 
*END

*D_NET *16 0.00100219
*CONN
*P P[7] O
*I *215:X O *D sky130_fd_sc_hd__buf_2
*CAP
1 P[7] 0.000501094
2 *215:X 0.000501094
3 P[6] P[7] 0
*RES
1 *215:X P[7] 48.9786 
*END

*D_NET *19 0.00126421
*CONN
*I *173:B1 I *D sky130_fd_sc_hd__a21oi_1
*I *174:A I *D sky130_fd_sc_hd__and3_1
*I *169:X O *D sky130_fd_sc_hd__and2_1
*CAP
1 *173:B1 0.000270757
2 *174:A 0
3 *169:X 0
4 *19:12 0.000176179
5 *19:4 0.000446936
6 *173:B1 *173:A1 0.000258245
7 *173:B1 *175:A 4.84129e-06
8 *173:B1 *52:47 7.06963e-06
9 *19:12 *173:A1 0.00010018
10 *19:12 *22:33 0
11 *19:12 *52:12 0
*RES
1 *169:X *19:4 23 
2 *19:4 *19:12 32.6514 
3 *19:12 *174:A 23 
4 *19:4 *173:B1 27.4536 
*END

*D_NET *20 0.00228893
*CONN
*I *198:B1 I *D sky130_fd_sc_hd__a211oi_1
*I *185:A1 I *D sky130_fd_sc_hd__o211a_1
*I *170:X O *D sky130_fd_sc_hd__and4_1
*CAP
1 *198:B1 7.32846e-05
2 *185:A1 0
3 *170:X 0.000369193
4 *20:8 0.000442477
5 *198:B1 *198:A2 0.000191255
6 *198:B1 *198:C1 8.97674e-05
7 *198:B1 *199:A 5.50106e-05
8 *198:B1 *32:18 2.47321e-05
9 *198:B1 *34:8 0.000140927
10 *20:8 *184:B1 2.47127e-05
11 *20:8 *198:A2 9.0029e-05
12 *20:8 *198:C1 5.56356e-05
13 *20:8 *21:25 0.00010655
14 *20:8 *24:10 4.15957e-05
15 *20:8 *33:8 3.22051e-05
16 *20:8 *44:58 0.000401899
17 *20:8 *44:69 5.50049e-05
18 *20:8 *52:64 9.46497e-05
*RES
1 *170:X *20:8 33.1707 
2 *20:8 *185:A1 23 
3 *20:8 *198:B1 26.48 
*END

*D_NET *21 0.00290008
*CONN
*I *174:B I *D sky130_fd_sc_hd__and3_1
*I *173:A1 I *D sky130_fd_sc_hd__a21oi_1
*I *171:Y O *D sky130_fd_sc_hd__nand4_1
*CAP
1 *174:B 0
2 *173:A1 0.000310882
3 *171:Y 0
4 *21:25 0.000503666
5 *21:4 0.000814549
6 *173:A1 *171:A 1.32314e-05
7 *173:A1 *22:33 9.84851e-05
8 *173:A1 *52:6 7.1349e-05
9 *173:A1 *52:39 0.000184737
10 *173:A1 *52:47 2.25419e-05
11 *21:25 *171:A 3.31683e-05
12 *21:25 *44:36 5.3304e-05
13 *21:25 *44:42 3.47781e-05
14 *21:25 *44:51 0.000182832
15 *21:25 *44:58 2.9938e-05
16 *21:25 *52:12 4.95093e-05
17 *21:25 *55:38 3.21327e-05
18 *173:B1 *173:A1 0.000258245
19 *19:12 *173:A1 0.00010018
20 *20:8 *21:25 0.00010655
*RES
1 *171:Y *21:4 23 
2 *21:4 *173:A1 32.7357 
3 *21:4 *21:25 38.3479 
4 *21:25 *174:B 23 
*END

*D_NET *22 0.00190883
*CONN
*I *173:A2 I *D sky130_fd_sc_hd__a21oi_1
*I *174:C I *D sky130_fd_sc_hd__and3_1
*I *172:X O *D sky130_fd_sc_hd__a22o_1
*CAP
1 *173:A2 0
2 *174:C 0
3 *172:X 0.000356544
4 *22:33 0.000262331
5 *22:14 0.000618875
6 *22:14 *170:A 5.50106e-05
7 *22:14 *170:B 4.6595e-05
8 *22:14 *170:C 2.16273e-05
9 *22:14 *44:51 1.22822e-05
10 *22:14 *44:58 0.000217765
11 *22:33 *184:B1 1.01436e-05
12 *22:33 *24:10 5.50049e-05
13 *22:33 *44:58 0.000118928
14 *22:33 *52:47 3.52383e-05
15 *173:A1 *22:33 9.84851e-05
16 *19:12 *22:33 0
*RES
1 *172:X *22:14 29.7529 
2 *22:14 *174:C 23 
3 *22:14 *22:33 35.4893 
4 *22:33 *173:A2 23 
*END

*D_NET *23 0.000181842
*CONN
*I *175:A I *D sky130_fd_sc_hd__nor2_1
*I *173:Y O *D sky130_fd_sc_hd__a21oi_1
*CAP
1 *175:A 7.40197e-05
2 *173:Y 7.40197e-05
3 *175:A *169:B 0
4 *175:A *52:47 2.89609e-05
5 *173:B1 *175:A 4.84129e-06
*RES
1 *173:Y *175:A 47.6157 
*END

*D_NET *24 0.00266166
*CONN
*I *198:C1 I *D sky130_fd_sc_hd__a211oi_1
*I *185:A2 I *D sky130_fd_sc_hd__o211a_1
*I *175:B I *D sky130_fd_sc_hd__nor2_1
*I *174:X O *D sky130_fd_sc_hd__and3_1
*CAP
1 *198:C1 0.000294345
2 *185:A2 0
3 *175:B 0
4 *174:X 0.000331187
5 *24:25 0.000526914
6 *24:14 0.000275918
7 *24:10 0.000374536
8 *198:C1 *199:A 1.76557e-05
9 *198:C1 *32:10 5.24393e-05
10 *198:C1 *34:8 0.000140927
11 *24:10 *184:B1 0.00014428
12 *24:10 *44:58 1.56762e-05
13 *24:10 *52:47 0.000139856
14 *24:14 *45:10 4.4859e-06
15 *24:25 *32:10 1.14452e-05
16 *24:25 *32:18 6.16531e-05
17 *24:25 *45:10 2.83387e-05
18 *198:B1 *198:C1 8.97674e-05
19 *20:8 *198:C1 5.56356e-05
20 *20:8 *24:10 4.15957e-05
21 *22:33 *24:10 5.50049e-05
*RES
1 *174:X *24:10 43.8621 
2 *24:10 *24:14 15.6214 
3 *24:14 *175:B 23 
4 *24:14 *24:25 19.6607 
5 *24:25 *185:A2 38 
6 *24:25 *198:C1 43.7793 
*END

*D_NET *25 0.000477983
*CONN
*I *181:A I *D sky130_fd_sc_hd__xor2_1
*I *176:Y O *D sky130_fd_sc_hd__nand2_1
*CAP
1 *181:A 0
2 *176:Y 0.00021402
3 *25:10 0.00021402
4 *25:10 *180:A2 0
5 *25:10 *189:A 1.76557e-05
6 *25:10 *38:8 0
7 *25:10 *52:25 3.22879e-05
*RES
1 *176:Y *25:10 41.3557 
2 *25:10 *181:A 38 
*END

*D_NET *26 0.000453501
*CONN
*I *197:A I *D sky130_fd_sc_hd__xnor2_1
*I *177:Y O *D sky130_fd_sc_hd__nand2_1
*CAP
1 *197:A 4.15138e-05
2 *177:Y 0.000113926
3 *26:8 0.00015544
4 *197:A *49:10 3.7122e-06
5 *197:A *57:47 0.000100069
6 *26:8 *197:B 1.34354e-05
7 *26:8 *42:10 2.54046e-05
*RES
1 *177:Y *26:8 39.9057 
2 *26:8 *197:A 39.0979 
*END

*D_NET *27 0.00119212
*CONN
*I *180:A2 I *D sky130_fd_sc_hd__a21bo_1
*I *190:B1 I *D sky130_fd_sc_hd__a32o_1
*I *178:X O *D sky130_fd_sc_hd__and3_1
*CAP
1 *180:A2 0.000260357
2 *190:B1 7.48857e-06
3 *178:X 0.000175605
4 *27:12 0.000443451
5 *180:A2 *177:B 3.22879e-05
6 *180:A2 *28:23 4.23714e-05
7 *180:A2 *38:8 0
8 *180:A2 *53:42 7.88926e-05
9 *180:A2 *57:10 0
10 *180:A2 *57:34 0
11 *190:B1 *190:A3 2.39868e-05
12 *190:B1 *56:53 1.45295e-05
13 *27:12 *178:C 0
14 *27:12 *52:12 0.000113153
15 *27:12 *57:10 0
16 *25:10 *180:A2 0
*RES
1 *178:X *27:12 40.6721 
2 *27:12 *190:B1 38.2796 
3 *27:12 *180:A2 43.365 
*END

*D_NET *28 0.00107881
*CONN
*I *180:B1_N I *D sky130_fd_sc_hd__a21bo_1
*I *190:A3 I *D sky130_fd_sc_hd__a32o_1
*I *179:X O *D sky130_fd_sc_hd__a22o_1
*CAP
1 *180:B1_N 0
2 *190:A3 0.000192026
3 *179:X 0
4 *28:23 0.00013578
5 *28:4 0.000327806
6 *190:A3 *176:A 1.21972e-05
7 *190:A3 *190:B2 6.81213e-05
8 *190:A3 *52:25 6.8523e-05
9 *190:A3 *56:53 3.90442e-05
10 *28:23 *53:42 9.84851e-05
11 *28:23 *57:10 4.08537e-05
12 *28:23 *57:34 2.96154e-05
13 *180:A2 *28:23 4.23714e-05
14 *190:B1 *190:A3 2.39868e-05
*RES
1 *179:X *28:4 23 
2 *28:4 *190:A3 27.35 
3 *28:4 *28:23 33.0036 
4 *28:23 *180:B1_N 23 
*END

*D_NET *29 0.000167848
*CONN
*I *181:B I *D sky130_fd_sc_hd__xor2_1
*I *180:X O *D sky130_fd_sc_hd__a21bo_1
*CAP
1 *181:B 3.38339e-05
2 *180:X 3.38339e-05
3 *181:B *177:B 0.00010018
*RES
1 *180:X *181:B 47.0979 
*END

*D_NET *30 0.00311286
*CONN
*I *195:A1 I *D sky130_fd_sc_hd__a221o_1
*I *187:A I *D sky130_fd_sc_hd__nor2_1
*I *186:B1 I *D sky130_fd_sc_hd__o21a_1
*I *181:X O *D sky130_fd_sc_hd__xor2_1
*CAP
1 *195:A1 0
2 *187:A 7.22096e-05
3 *186:B1 0
4 *181:X 0.000321368
5 *30:18 0.000323706
6 *30:8 0.000572864
7 *187:A *187:B 6.9805e-05
8 *30:8 *177:A 0.000188301
9 *30:8 *177:B 6.21678e-05
10 *30:8 *31:20 1.46586e-05
11 *30:8 *37:12 0.000113554
12 *30:8 *38:14 4.14597e-05
13 *30:8 *42:10 0.000363504
14 *30:8 *57:60 0.000142173
15 *30:18 *186:A1 0.000228624
16 *30:18 *187:B 8.6949e-05
17 *30:18 *195:B1 9.3465e-05
18 *30:18 *31:20 0.000215725
19 *30:18 *34:23 1.6891e-05
20 *30:18 *34:27 0.000185434
*RES
1 *181:X *30:8 32.0936 
2 *30:8 *30:18 37.7679 
3 *30:18 *186:B1 23 
4 *30:18 *187:A 24.5743 
5 *30:8 *195:A1 23 
*END

*D_NET *31 0.00211229
*CONN
*I *186:A1 I *D sky130_fd_sc_hd__o21a_1
*I *195:A2 I *D sky130_fd_sc_hd__a221o_1
*I *182:X O *D sky130_fd_sc_hd__and4_1
*CAP
1 *186:A1 0.000127297
2 *195:A2 0
3 *182:X 0.000170116
4 *31:20 0.000152929
5 *31:12 0.000460275
6 *31:8 0.000350165
7 *31:8 *32:26 0
8 *31:8 *34:23 0
9 *31:8 *57:60 1.14452e-05
10 *31:8 *57:66 0.000360161
11 *31:20 *34:23 6.23248e-06
12 *31:20 *37:12 1.46586e-05
13 *31:20 *57:60 0
14 *30:8 *31:20 1.46586e-05
15 *30:18 *186:A1 0.000228624
16 *30:18 *31:20 0.000215725
*RES
1 *182:X *31:8 42.7229 
2 *31:8 *31:12 17.5271 
3 *31:12 *31:20 33.4852 
4 *31:20 *195:A2 23 
5 *31:12 *186:A1 26.0036 
*END

*D_NET *32 0.00438916
*CONN
*I *185:B1 I *D sky130_fd_sc_hd__o211a_1
*I *198:A1 I *D sky130_fd_sc_hd__a211oi_1
*I *188:A1 I *D sky130_fd_sc_hd__a21oi_1
*I *183:Y O *D sky130_fd_sc_hd__nand4_1
*CAP
1 *185:B1 0
2 *198:A1 0
3 *188:A1 0
4 *183:Y 0.000385669
5 *32:26 0.000809424
6 *32:18 0.0010983
7 *32:10 0.000674541
8 *32:10 *52:64 0
9 *32:10 *52:76 0.00010018
10 *32:18 *198:A2 0.000272345
11 *32:26 *188:B1 0.000139357
12 *32:26 *199:A 6.16439e-05
13 *32:26 *34:23 0.000697432
14 *32:26 *57:66 0
15 *198:B1 *32:18 2.47321e-05
16 *198:C1 *32:10 5.24393e-05
17 *24:25 *32:10 1.14452e-05
18 *24:25 *32:18 6.16531e-05
19 *31:8 *32:26 0
*RES
1 *183:Y *32:10 43.7379 
2 *32:10 *32:18 19.8264 
3 *32:18 *32:26 45.8671 
4 *32:26 *188:A1 23 
5 *32:18 *198:A1 23 
6 *32:10 *185:B1 38 
*END

*D_NET *33 0.000932505
*CONN
*I *198:A2 I *D sky130_fd_sc_hd__a211oi_1
*I *185:C1 I *D sky130_fd_sc_hd__o211a_1
*I *184:X O *D sky130_fd_sc_hd__a22o_1
*CAP
1 *198:A2 0.00010495
2 *185:C1 2.02433e-05
3 *184:X 4.81423e-05
4 *33:8 0.000173336
5 *198:B1 *198:A2 0.000191255
6 *20:8 *198:A2 9.0029e-05
7 *20:8 *33:8 3.22051e-05
8 *32:18 *198:A2 0.000272345
*RES
1 *184:X *33:8 24.1186 
2 *33:8 *185:C1 23.4971 
3 *33:8 *198:A2 26.9564 
*END

*D_NET *34 0.0043505
*CONN
*I *195:B1 I *D sky130_fd_sc_hd__a221o_1
*I *187:B I *D sky130_fd_sc_hd__nor2_1
*I *186:A2 I *D sky130_fd_sc_hd__o21a_1
*I *199:A I *D sky130_fd_sc_hd__nor2_1
*I *185:X O *D sky130_fd_sc_hd__o211a_1
*CAP
1 *195:B1 0.000188416
2 *187:B 0.000220281
3 *186:A2 0
4 *199:A 0.000246038
5 *185:X 3.95309e-05
6 *34:27 0.000309394
7 *34:23 0.000762052
8 *34:8 0.000770092
9 *195:B1 *188:B1 0
10 *195:B1 *194:A 0
11 *195:B1 *37:12 2.93747e-05
12 *195:B1 *37:27 3.70094e-05
13 *199:A *199:B 0.000143655
14 *199:A *46:8 3.22879e-05
15 *34:23 *188:B1 0
16 *34:23 *36:8 0
17 *187:A *187:B 6.9805e-05
18 *198:B1 *199:A 5.50106e-05
19 *198:B1 *34:8 0.000140927
20 *198:C1 *199:A 1.76557e-05
21 *198:C1 *34:8 0.000140927
22 *30:18 *187:B 8.6949e-05
23 *30:18 *195:B1 9.3465e-05
24 *30:18 *34:23 1.6891e-05
25 *30:18 *34:27 0.000185434
26 *31:8 *34:23 0
27 *31:20 *34:23 6.23248e-06
28 *32:26 *199:A 6.16439e-05
29 *32:26 *34:23 0.000697432
*RES
1 *185:X *34:8 39.5743 
2 *34:8 *199:A 43.3029 
3 *34:8 *34:23 11.7657 
4 *34:23 *34:27 17.0507 
5 *34:27 *186:A2 23 
6 *34:27 *187:B 27.3293 
7 *34:23 *195:B1 41.5836 
*END

*D_NET *35 0.00177461
*CONN
*I *194:A I *D sky130_fd_sc_hd__xnor2_1
*I *188:B1 I *D sky130_fd_sc_hd__a21oi_1
*I *186:X O *D sky130_fd_sc_hd__o21a_1
*CAP
1 *194:A 0.00035554
2 *188:B1 0.000310165
3 *186:X 0
4 *35:6 0.000665704
5 *188:B1 *36:8 5.21127e-05
6 *188:B1 *47:10 5.37348e-06
7 *194:A *193:B 9.84851e-05
8 *194:A *194:B 0.000143655
9 *194:A *38:22 4.21594e-06
10 *195:B1 *188:B1 0
11 *195:B1 *194:A 0
12 *32:26 *188:B1 0.000139357
13 *34:23 *188:B1 0
*RES
1 *186:X *35:6 38 
2 *35:6 *188:B1 43.8414 
3 *35:6 *194:A 45.1671 
*END

*D_NET *36 0.000259983
*CONN
*I *188:A2 I *D sky130_fd_sc_hd__a21oi_1
*I *187:Y O *D sky130_fd_sc_hd__nor2_1
*CAP
1 *188:A2 0
2 *187:Y 0.000103935
3 *36:8 0.000103935
4 *188:B1 *36:8 5.21127e-05
5 *34:23 *36:8 0
*RES
1 *187:Y *36:8 39.9057 
2 *36:8 *188:A2 38 
*END

*D_NET *37 0.00142505
*CONN
*I *192:A I *D sky130_fd_sc_hd__and2_1
*I *191:A I *D sky130_fd_sc_hd__nor2_1
*I *195:B2 I *D sky130_fd_sc_hd__a221o_1
*I *189:X O *D sky130_fd_sc_hd__and2_1
*CAP
1 *192:A 2.18846e-05
2 *191:A 0
3 *195:B2 6.37446e-06
4 *189:X 9.39444e-05
5 *37:27 0.000157582
6 *37:14 0.000184952
7 *37:12 0.000181501
8 *37:8 0.000232566
9 *192:A *195:C1 3.22879e-05
10 *192:A *38:14 4.95081e-05
11 *37:8 *57:60 6.93449e-05
12 *37:12 *38:14 0.000189092
13 *37:14 *195:C1 1.14154e-05
14 *37:14 *38:14 0
15 *37:27 *38:22 0
16 *195:B1 *37:12 2.93747e-05
17 *195:B1 *37:27 3.70094e-05
18 *30:8 *37:12 0.000113554
19 *31:20 *37:12 1.46586e-05
*RES
1 *189:X *37:8 39.9057 
2 *37:8 *37:12 18.9564 
3 *37:12 *37:14 0.497143 
4 *37:14 *195:B2 23.1502 
5 *37:14 *37:27 32.61 
6 *37:27 *191:A 23 
7 *37:12 *192:A 24.0979 
*END

*D_NET *38 0.00362941
*CONN
*I *192:B I *D sky130_fd_sc_hd__and2_1
*I *191:B I *D sky130_fd_sc_hd__nor2_1
*I *190:X O *D sky130_fd_sc_hd__a32o_1
*CAP
1 *192:B 0
2 *191:B 0
3 *190:X 7.64e-05
4 *38:22 0.000201304
5 *38:14 0.00129853
6 *38:8 0.00117362
7 *38:14 *177:A 6.72785e-05
8 *38:14 *177:B 0.000400204
9 *38:14 *195:C1 3.05904e-05
10 *38:14 *57:60 4.3078e-05
11 *38:22 *39:10 5.41288e-05
12 *180:A2 *38:8 0
13 *192:A *38:14 4.95081e-05
14 *194:A *38:22 4.21594e-06
15 *25:10 *38:8 0
16 *30:8 *38:14 4.14597e-05
17 *37:12 *38:14 0.000189092
18 *37:14 *38:14 0
19 *37:27 *38:22 0
*RES
1 *190:X *38:8 39.2014 
2 *38:8 *38:14 31.5921 
3 *38:14 *38:22 33.7079 
4 *38:22 *191:B 23 
5 *38:14 *192:B 23 
*END

*D_NET *39 0.000993674
*CONN
*I *193:A I *D sky130_fd_sc_hd__or2_1
*I *191:Y O *D sky130_fd_sc_hd__nor2_1
*CAP
1 *193:A 0
2 *191:Y 0.000469772
3 *39:10 0.000469772
4 *38:22 *39:10 5.41288e-05
*RES
1 *191:Y *39:10 44.4629 
2 *39:10 *193:A 38 
*END

*D_NET *40 0.000621891
*CONN
*I *193:B I *D sky130_fd_sc_hd__or2_1
*I *195:C1 I *D sky130_fd_sc_hd__a221o_1
*I *192:X O *D sky130_fd_sc_hd__and2_1
*CAP
1 *193:B 7.4206e-05
2 *195:C1 0.00015035
3 *192:X 0
4 *40:4 0.000224556
5 *192:A *195:C1 3.22879e-05
6 *194:A *193:B 9.84851e-05
7 *37:14 *195:C1 1.14154e-05
8 *38:14 *195:C1 3.05904e-05
*RES
1 *192:X *40:4 23 
2 *40:4 *195:C1 26.0243 
3 *40:4 *193:B 24.5743 
*END

*D_NET *41 0.000250291
*CONN
*I *194:B I *D sky130_fd_sc_hd__xnor2_1
*I *193:X O *D sky130_fd_sc_hd__or2_1
*CAP
1 *194:B 5.33183e-05
2 *193:X 5.33183e-05
3 *194:A *194:B 0.000143655
*RES
1 *193:X *194:B 47.5743 
*END

*D_NET *42 0.00218876
*CONN
*I *197:B I *D sky130_fd_sc_hd__xnor2_1
*I *196:C I *D sky130_fd_sc_hd__and3_1
*I *195:X O *D sky130_fd_sc_hd__a221o_1
*CAP
1 *197:B 5.4513e-05
2 *196:C 0.000276589
3 *195:X 0.000298651
4 *42:10 0.000629753
5 *196:C *57:34 0.000107741
6 *196:C *57:47 0.000301933
7 *197:B *57:47 3.43144e-05
8 *42:10 *57:47 8.29264e-05
9 *26:8 *197:B 1.34354e-05
10 *26:8 *42:10 2.54046e-05
11 *30:8 *42:10 0.000363504
*RES
1 *195:X *42:10 43.1579 
2 *42:10 *196:C 42.5157 
3 *42:10 *197:B 39.2014 
*END

*D_NET *43 0.000240688
*CONN
*I *199:B I *D sky130_fd_sc_hd__nor2_1
*I *198:Y O *D sky130_fd_sc_hd__a211oi_1
*CAP
1 *199:B 4.85166e-05
2 *198:Y 4.85166e-05
3 *199:A *199:B 0.000143655
*RES
1 *198:Y *199:B 47.5743 
*END

*D_NET *44 0.005375
*CONN
*I *182:B I *D sky130_fd_sc_hd__and4_1
*I *183:B I *D sky130_fd_sc_hd__nand4_1
*I *184:B2 I *D sky130_fd_sc_hd__a22o_1
*I *170:D I *D sky130_fd_sc_hd__and4_1
*I *200:A I *D sky130_fd_sc_hd__clkbuf_1
*I *172:B2 I *D sky130_fd_sc_hd__a22o_1
*I *171:D I *D sky130_fd_sc_hd__nand4_1
*I *201:X O *D sky130_fd_sc_hd__dlymetal6s2s_1
*CAP
1 *182:B 0.000193515
2 *183:B 0
3 *184:B2 0
4 *170:D 0
5 *200:A 0
6 *172:B2 0
7 *171:D 0
8 *201:X 0.000273678
9 *44:69 0.000327148
10 *44:58 0.000228748
11 *44:51 0.000165635
12 *44:42 0.000113265
13 *44:36 0.000377606
14 *44:23 0.000345592
15 *44:10 0.000425449
16 *182:B *182:A 4.08537e-05
17 *182:B *57:72 0.000136285
18 *44:10 *171:A 3.92407e-05
19 *44:10 *52:12 0
20 *44:23 *171:A 3.30486e-05
21 *44:23 *171:B 0.000140958
22 *44:23 *171:C 0.000139657
23 *44:23 *56:16 3.70187e-05
24 *44:36 *170:C 0.000308045
25 *44:36 *171:B 1.14452e-05
26 *44:36 *51:14 5.01986e-05
27 *44:36 *56:14 3.70187e-05
28 *44:36 *56:16 2.55642e-05
29 *44:42 *52:12 9.63815e-05
30 *44:42 *55:38 0
31 *44:51 *170:C 0.00016696
32 *44:58 *184:B1 5.50106e-05
33 *44:69 *182:A 2.60152e-05
34 *44:69 *184:A1 0.000183953
35 *44:69 *184:B1 8.177e-05
36 *44:69 *52:64 0.000166522
37 *44:69 *57:72 2.60152e-05
38 *20:8 *44:58 0.000401899
39 *20:8 *44:69 5.50049e-05
40 *21:25 *44:36 5.3304e-05
41 *21:25 *44:42 3.47781e-05
42 *21:25 *44:51 0.000182832
43 *21:25 *44:58 2.9938e-05
44 *22:14 *44:51 1.22822e-05
45 *22:14 *44:58 0.000217765
46 *22:33 *44:58 0.000118928
47 *24:10 *44:58 1.56762e-05
*RES
1 *201:X *44:10 43.0129 
2 *44:10 *171:D 38 
3 *44:10 *44:23 3.85286 
4 *44:23 *172:B2 38 
5 *44:23 *44:36 19.3293 
6 *44:36 *44:42 32.61 
7 *44:42 *200:A 23 
8 *44:36 *44:51 2.9 
9 *44:51 *170:D 23 
10 *44:51 *44:58 5.38571 
11 *44:58 *184:B2 23 
12 *44:58 *44:69 19.64 
13 *44:69 *183:B 38 
14 *44:69 *182:B 41.2521 
*END

*D_NET *45 0.000474118
*CONN
*I *210:A I *D sky130_fd_sc_hd__buf_2
*I *175:Y O *D sky130_fd_sc_hd__nor2_1
*CAP
1 *210:A 0
2 *175:Y 0.000220647
3 *45:10 0.000220647
4 *24:14 *45:10 4.4859e-06
5 *24:25 *45:10 2.83387e-05
*RES
1 *175:Y *45:10 41.3557 
2 *45:10 *210:A 38 
*END

*D_NET *46 0.00125307
*CONN
*I *211:A I *D sky130_fd_sc_hd__buf_2
*I *199:Y O *D sky130_fd_sc_hd__nor2_1
*CAP
1 *211:A 0
2 *199:Y 0.00061039
3 *46:8 0.00061039
4 *199:A *46:8 3.22879e-05
*RES
1 *199:Y *46:8 34.6 
2 *46:8 *211:A 23 
*END

*D_NET *47 0.00131809
*CONN
*I *212:A I *D sky130_fd_sc_hd__buf_2
*I *188:Y O *D sky130_fd_sc_hd__a21oi_1
*CAP
1 *212:A 0
2 *188:Y 0.000649986
3 *47:10 0.000649986
4 P[4] *47:10 1.27424e-05
5 *188:B1 *47:10 5.37348e-06
*RES
1 *188:Y *47:10 49.5586 
2 *47:10 *212:A 38 
*END

*D_NET *48 0.000506189
*CONN
*I *213:A I *D sky130_fd_sc_hd__buf_2
*I *194:Y O *D sky130_fd_sc_hd__xnor2_1
*CAP
1 *213:A 0
2 *194:Y 0.000253095
3 *48:8 0.000253095
*RES
1 *194:Y *48:8 27.8057 
2 *48:8 *213:A 23 
*END

*D_NET *49 0.000371067
*CONN
*I *214:A I *D sky130_fd_sc_hd__buf_2
*I *197:Y O *D sky130_fd_sc_hd__xnor2_1
*CAP
1 *214:A 0
2 *197:Y 0.000177939
3 *49:10 0.000177939
4 *49:10 *50:8 0
5 *49:10 *57:47 1.14762e-05
6 *197:A *49:10 3.7122e-06
*RES
1 *197:Y *49:10 40.8793 
2 *49:10 *214:A 38 
*END

*D_NET *50 0.00038837
*CONN
*I *215:A I *D sky130_fd_sc_hd__buf_2
*I *196:X O *D sky130_fd_sc_hd__and3_1
*CAP
1 *215:A 4.24211e-05
2 *196:X 0.000151764
3 *50:8 0.000194185
4 *49:10 *50:8 0
*RES
1 *196:X *50:8 40.61 
2 *50:8 *215:A 38.6214 
*END

*D_NET *51 0.00389458
*CONN
*I *179:A1 I *D sky130_fd_sc_hd__a22o_1
*I *178:B I *D sky130_fd_sc_hd__and3_1
*I *170:B I *D sky130_fd_sc_hd__and4_1
*I *172:A2 I *D sky130_fd_sc_hd__a22o_1
*I *171:B I *D sky130_fd_sc_hd__nand4_1
*I *202:X O *D sky130_fd_sc_hd__clkbuf_1
*CAP
1 *179:A1 0
2 *178:B 0.000174424
3 *170:B 5.14627e-05
4 *172:A2 0
5 *171:B 0.00017345
6 *202:X 0.000105059
7 *51:29 9.71724e-05
8 *51:14 0.000486799
9 *51:12 0.000571724
10 *51:8 0.00023472
11 *170:B *170:A 0.000127821
12 *170:B *170:C 0.0002263
13 *171:B *171:A 6.89133e-05
14 *171:B *171:C 9.84794e-05
15 *171:B *55:38 1.12487e-05
16 *178:B *178:A 4.05309e-05
17 *178:B *178:C 1.02949e-05
18 *51:8 *179:B2 5.50049e-05
19 *51:8 *190:B2 2.93747e-05
20 *51:8 *56:53 0.000137651
21 *51:12 *178:C 0.000110913
22 *51:12 *179:B2 6.4393e-05
23 *51:12 *52:12 0
24 *51:12 *55:10 5.65491e-05
25 *51:14 *52:12 0
26 *51:14 *55:10 5.56306e-05
27 *51:14 *55:36 0.000108569
28 *51:14 *55:38 0.000133645
29 *51:14 *56:14 0.00016587
30 *51:29 *170:A 5.50106e-05
31 *51:29 *170:C 0.000139357
32 *51:29 *172:B1 5.50106e-05
33 *22:14 *170:B 4.6595e-05
34 *44:23 *171:B 0.000140958
35 *44:36 *171:B 1.14452e-05
36 *44:36 *51:14 5.01986e-05
*RES
1 *202:X *51:8 25.5479 
2 *51:8 *51:12 18.3143 
3 *51:12 *51:14 7.89214 
4 *51:14 *171:B 41.48 
5 *51:14 *51:29 16.5743 
6 *51:29 *172:A2 23 
7 *51:29 *170:B 25.5271 
8 *51:12 *178:B 40.5271 
9 *51:8 *179:A1 23 
*END

*D_NET *52 0.00786622
*CONN
*I *169:B I *D sky130_fd_sc_hd__and2_1
*I *183:C I *D sky130_fd_sc_hd__nand4_1
*I *182:C I *D sky130_fd_sc_hd__and4_1
*I *184:A2 I *D sky130_fd_sc_hd__a22o_1
*I *189:A I *D sky130_fd_sc_hd__and2_1
*I *176:B I *D sky130_fd_sc_hd__nand2_1
*I *190:A2 I *D sky130_fd_sc_hd__a32o_1
*I *203:X O *D sky130_fd_sc_hd__clkbuf_2
*CAP
1 *169:B 4.01156e-05
2 *183:C 0
3 *182:C 0
4 *184:A2 0
5 *189:A 0.000330302
6 *176:B 0
7 *190:A2 0
8 *203:X 0.000254891
9 *52:76 0.000286003
10 *52:66 0.000286003
11 *52:64 0.000301773
12 *52:47 0.000814028
13 *52:39 0.000763056
14 *52:25 0.00047153
15 *52:12 0.000987601
16 *52:6 0.00131195
17 *52:6 *171:A 0.000143655
18 *52:6 *171:C 6.51763e-05
19 *52:12 *171:A 0
20 *52:12 *55:36 0
21 *52:12 *55:38 0
22 *52:25 *176:A 0.000159955
23 *52:25 *190:A1 4.00259e-06
24 *52:47 *184:A1 1.12863e-05
25 *52:47 *54:10 0
26 *52:64 *184:A1 7.67018e-05
27 *52:64 *184:B1 0.000171906
28 *52:64 *57:72 1.14452e-05
29 *52:76 *182:A 3.48854e-05
30 *52:76 *184:A1 7.69256e-06
31 *52:76 *55:71 0.000102762
32 *52:76 *55:80 8.884e-07
33 *173:A1 *52:6 7.1349e-05
34 *173:A1 *52:39 0.000184737
35 *173:A1 *52:47 2.25419e-05
36 *173:B1 *52:47 7.06963e-06
37 *175:A *169:B 0
38 *175:A *52:47 2.89609e-05
39 *190:A3 *52:25 6.8523e-05
40 *19:12 *52:12 0
41 *20:8 *52:64 9.46497e-05
42 *21:25 *52:12 4.95093e-05
43 *22:33 *52:47 3.52383e-05
44 *24:10 *52:47 0.000139856
45 *25:10 *189:A 1.76557e-05
46 *25:10 *52:25 3.22879e-05
47 *27:12 *52:12 0.000113153
48 *32:10 *52:64 0
49 *32:10 *52:76 0.00010018
50 *44:10 *52:12 0
51 *44:42 *52:12 9.63815e-05
52 *44:69 *52:64 0.000166522
53 *51:12 *52:12 0
54 *51:14 *52:12 0
*RES
1 *203:X *52:6 28.3857 
2 *52:6 *52:12 44.2307 
3 *52:12 *190:A2 23 
4 *52:12 *52:25 4.495 
5 *52:25 *176:B 23 
6 *52:25 *189:A 29.3386 
7 *52:6 *52:39 4.90929 
8 *52:39 *52:47 22.6436 
9 *52:47 *184:A2 38 
10 *52:47 *52:64 35.51 
11 *52:64 *52:66 15 
12 *52:66 *52:76 35.7586 
13 *52:76 *182:C 23 
14 *52:66 *183:C 23 
15 *52:39 *169:B 23.8493 
*END

*D_NET *53 0.00475112
*CONN
*I *196:B I *D sky130_fd_sc_hd__and3_1
*I *177:B I *D sky130_fd_sc_hd__nand2_1
*I *180:A1 I *D sky130_fd_sc_hd__a21bo_1
*I *190:B2 I *D sky130_fd_sc_hd__a32o_1
*I *179:B1 I *D sky130_fd_sc_hd__a22o_1
*I *204:X O *D sky130_fd_sc_hd__buf_1
*CAP
1 *196:B 0.00048564
2 *177:B 0.000193577
3 *180:A1 2.34823e-05
4 *190:B2 0.000135111
5 *179:B1 0
6 *204:X 7.10993e-05
7 *53:42 0.000475106
8 *53:20 0.000294814
9 *53:16 0.000585379
10 *53:12 0.000757731
11 *53:8 0.00017556
12 *190:B2 *56:53 7.96347e-05
13 *196:B *57:34 0.000233948
14 *53:16 *57:34 0.000114656
15 *53:20 *178:C 6.07611e-06
16 *53:20 *179:B2 1.01436e-05
17 *53:20 *57:10 7.55491e-05
18 *53:20 *57:34 1.12487e-05
19 *53:42 *57:8 9.67842e-05
20 *180:A2 *177:B 3.22879e-05
21 *180:A2 *53:42 7.88926e-05
22 *181:B *177:B 0.00010018
23 *190:A3 *190:B2 6.81213e-05
24 *204:A *53:8 5.58694e-05
25 *28:23 *53:42 9.84851e-05
26 *30:8 *177:B 6.21678e-05
27 *38:14 *177:B 0.000400204
28 *51:8 *190:B2 2.93747e-05
*RES
1 *204:X *53:8 39.5536 
2 *53:8 *53:12 16.5743 
3 *53:12 *53:16 19.0186 
4 *53:16 *53:20 17.61 
5 *53:20 *179:B1 23 
6 *53:20 *190:B2 26.6664 
7 *53:16 *53:42 19.9093 
8 *53:42 *180:A1 23.4971 
9 *53:42 *177:B 29.235 
10 *53:12 *196:B 31.8864 
*END

*D_NET *54 0.000467732
*CONN
*I *169:A I *D sky130_fd_sc_hd__and2_1
*I *205:X O *D sky130_fd_sc_hd__clkbuf_1
*CAP
1 *169:A 0
2 *205:X 0.000224125
3 *54:10 0.000224125
4 *205:A *54:10 1.94812e-05
5 *52:47 *54:10 0
*RES
1 *205:X *54:10 41.0036 
2 *54:10 *169:A 38 
*END

*D_NET *55 0.00620107
*CONN
*I *182:A I *D sky130_fd_sc_hd__and4_1
*I *184:A1 I *D sky130_fd_sc_hd__a22o_1
*I *183:A I *D sky130_fd_sc_hd__nand4_1
*I *170:A I *D sky130_fd_sc_hd__and4_1
*I *172:A1 I *D sky130_fd_sc_hd__a22o_1
*I *171:A I *D sky130_fd_sc_hd__nand4_1
*I *179:B2 I *D sky130_fd_sc_hd__a22o_1
*I *178:A I *D sky130_fd_sc_hd__and3_1
*I *206:X O *D sky130_fd_sc_hd__clkbuf_2
*CAP
1 *182:A 0.000111583
2 *184:A1 0.000205881
3 *183:A 0
4 *170:A 8.3952e-05
5 *172:A1 0
6 *171:A 0.00015812
7 *179:B2 0.000128426
8 *178:A 0.000119574
9 *206:X 4.90818e-05
10 *55:80 0.000324252
11 *55:71 0.000679596
12 *55:51 8.3952e-05
13 *55:38 0.000340683
14 *55:36 0.00111765
15 *55:10 0.000320278
16 *55:6 0.000383634
17 *171:A *171:C 6.17437e-06