*SPEF "ieee 1481-1999"
*DESIGN "SARSA_WInd_e8"
*DATE "11:23:44 Wednesday September 17, 2025"
*VENDOR "The OpenROAD Project"
*PROGRAM "OpenROAD"
*VERSION "edf00dff99f6c40d67a30c0e22a8191c5d2ed9d6"
*DESIGN_FLOW "NAME_SCOPE LOCAL" "PIN_CAP NONE"
*DIVIDER /
*DELIMITER :
*BUS_DELIMITER []
*T_UNIT 1 NS
*C_UNIT 1 PF
*R_UNIT 1 OHM
*L_UNIT 1 HENRY

*NAME_MAP
*1 A[0]
*2 A[1]
*3 B[0]
*4 B[1]
*5 P[0]
*6 P[1]
*7 P[2]
*8 P[3]
*11 _0_
*12 _1_
*13 _2_
*14 net1
*15 net2
*16 net3
*17 net4
*18 net5
*19 net6
*20 net7
*21 net8
*22 FILLER_0_15
*23 FILLER_0_27
*24 FILLER_0_29
*25 FILLER_0_3
*26 FILLER_0_37
*27 FILLER_0_42
*28 FILLER_0_54
*29 FILLER_0_57
*30 FILLER_0_69
*31 FILLER_1_15
*32 FILLER_1_27
*33 FILLER_1_3
*34 FILLER_1_39
*35 FILLER_1_51
*36 FILLER_1_55
*37 FILLER_1_57
*38 FILLER_1_69
*39 FILLER_2_15
*40 FILLER_2_27
*41 FILLER_2_29
*42 FILLER_2_3
*43 FILLER_2_41
*44 FILLER_2_53
*45 FILLER_2_65
*46 FILLER_2_77
*47 FILLER_3_15
*48 FILLER_3_27
*49 FILLER_3_3
*50 FILLER_3_39
*51 FILLER_3_51
*52 FILLER_3_55
*53 FILLER_3_57
*54 FILLER_3_69
*55 FILLER_4_18
*56 FILLER_4_26
*57 FILLER_4_29
*58 FILLER_4_35
*59 FILLER_4_43
*60 FILLER_4_57
*61 FILLER_4_6
*62 FILLER_4_69
*63 FILLER_5_18
*64 FILLER_5_26
*65 FILLER_5_33
*66 FILLER_5_45
*67 FILLER_5_53
*68 FILLER_5_57
*69 FILLER_5_6
*70 FILLER_5_69
*71 FILLER_6_15
*72 FILLER_6_27
*73 FILLER_6_29
*74 FILLER_6_3
*75 FILLER_6_41
*76 FILLER_6_53
*77 FILLER_6_65
*78 FILLER_6_77
*79 FILLER_7_15
*80 FILLER_7_27
*81 FILLER_7_3
*82 FILLER_7_35
*83 FILLER_7_41
*84 FILLER_7_53
*85 FILLER_7_57
*86 FILLER_7_69
*87 FILLER_8_15
*88 FILLER_8_27
*89 FILLER_8_29
*90 FILLER_8_3
*91 FILLER_8_41
*92 FILLER_8_52
*93 FILLER_8_64
*94 FILLER_8_76
*95 FILLER_8_80
*96 FILLER_9_15
*97 FILLER_9_27
*98 FILLER_9_29
*99 FILLER_9_3
*100 FILLER_9_37
*101 FILLER_9_42
*102 FILLER_9_48
*103 FILLER_9_55
*104 FILLER_9_57
*105 FILLER_9_69
*106 PHY_EDGE_ROW_0_Left_10
*107 PHY_EDGE_ROW_0_Right_0
*108 PHY_EDGE_ROW_1_Left_11
*109 PHY_EDGE_ROW_1_Right_1
*110 PHY_EDGE_ROW_2_Left_12
*111 PHY_EDGE_ROW_2_Right_2
*112 PHY_EDGE_ROW_3_Left_13
*113 PHY_EDGE_ROW_3_Right_3
*114 PHY_EDGE_ROW_4_Left_14
*115 PHY_EDGE_ROW_4_Right_4
*116 PHY_EDGE_ROW_5_Left_15
*117 PHY_EDGE_ROW_5_Right_5
*118 PHY_EDGE_ROW_6_Left_16
*119 PHY_EDGE_ROW_6_Right_6
*120 PHY_EDGE_ROW_7_Left_17
*121 PHY_EDGE_ROW_7_Right_7
*122 PHY_EDGE_ROW_8_Left_18
*123 PHY_EDGE_ROW_8_Right_8
*124 PHY_EDGE_ROW_9_Left_19
*125 PHY_EDGE_ROW_9_Right_9
*126 TAP_TAPCELL_ROW_0_20
*127 TAP_TAPCELL_ROW_0_21
*128 TAP_TAPCELL_ROW_1_22
*129 TAP_TAPCELL_ROW_2_23
*130 TAP_TAPCELL_ROW_3_24
*131 TAP_TAPCELL_ROW_4_25
*132 TAP_TAPCELL_ROW_5_26
*133 TAP_TAPCELL_ROW_6_27
*134 TAP_TAPCELL_ROW_7_28
*135 TAP_TAPCELL_ROW_8_29
*136 TAP_TAPCELL_ROW_9_30
*137 TAP_TAPCELL_ROW_9_31
*138 _3_
*139 _4_
*140 _5_
*141 _6_
*142 _7_
*143 _8_
*144 _9_
*145 input1
*146 input2
*147 input3
*148 input4
*149 output5
*150 output6
*151 output7
*152 output8

*PORTS
A[0] I
A[1] I
B[0] I
B[1] I
P[0] O
P[1] O
P[2] O
P[3] O

*D_NET *1 0.000733319
*CONN
*P A[0] I
*I *145:A I *D sky130_fd_sc_hd__clkbuf_1
*CAP
1 A[0] 0.000352215
2 *145:A 0
3 *1:17 0.000352215
4 *1:17 *3:17 2.88889e-05
*RES
1 A[0] *1:17 28.2148 
2 *1:17 *145:A 23 
*END

*D_NET *2 0.00106499
*CONN
*P A[1] I
*I *146:A I *D sky130_fd_sc_hd__clkbuf_1
*CAP
1 A[1] 0.000532493
2 *146:A 0.000532493
3 *146:A *148:A 0
*RES
1 A[1] *146:A 49.6829 
*END

*D_NET *3 0.000714438
*CONN
*P B[0] I
*I *147:A I *D sky130_fd_sc_hd__clkbuf_1
*CAP
1 B[0] 0.000342775
2 *147:A 0
3 *3:17 0.000342775
4 *1:17 *3:17 2.88889e-05
*RES
1 B[0] *3:17 27.8627 
2 *3:17 *147:A 23 
*END

*D_NET *4 0.00098608
*CONN
*P B[1] I
*I *148:A I *D sky130_fd_sc_hd__clkbuf_1
*CAP
1 B[1] 0.00049304
2 *148:A 0.00049304
3 *148:A P[1] 0
4 *146:A *148:A 0
*RES
1 B[1] *148:A 48.73 
*END

*D_NET *5 0.000937464
*CONN
*P P[0] O
*I *149:X O *D sky130_fd_sc_hd__buf_2
*CAP
1 P[0] 0.000468732
2 *149:X 0.000468732
*RES
1 *149:X P[0] 47.0936 
*END

*D_NET *6 0.000960449
*CONN
*P P[1] O
*I *150:X O *D sky130_fd_sc_hd__buf_2
*CAP
1 P[1] 0.000480224
2 *150:X 0.000480224
3 *148:A P[1] 0
*RES
1 *150:X P[1] 48.5021 
*END

*D_NET *7 0.000673721
*CONN
*P P[2] O
*I *151:X O *D sky130_fd_sc_hd__buf_2
*CAP
1 P[2] 0.000293173
2 *151:X 0.000293173
3 P[2] P[3] 8.73764e-05
*RES
1 *151:X P[2] 48.5734 
*END

*D_NET *8 0.00061075
*CONN
*P P[3] O
*I *152:X O *D sky130_fd_sc_hd__buf_2
*CAP
1 P[3] 0.000261687
2 *152:X 0.000261687
3 P[2] P[3] 8.73764e-05
*RES
1 *152:X P[3] 47.8691 
*END

*D_NET *11 0.00286792
*CONN
*I *143:A1 I *D sky130_fd_sc_hd__a21oi_1
*I *140:B I *D sky130_fd_sc_hd__and2_1
*I *144:B I *D sky130_fd_sc_hd__and2b_1
*I *139:X O *D sky130_fd_sc_hd__and2_1
*CAP
1 *143:A1 0.000194366
2 *140:B 0
3 *144:B 0
4 *139:X 0.000246007
5 *11:29 0.000141044
6 *11:16 0.000628455
7 *11:10 0.000927784
8 *143:A1 *143:B1 0.000362421
9 *11:10 *139:B 9.84794e-05
10 *11:10 *12:8 5.31444e-05
11 *11:16 *140:A 5.70419e-05
12 *11:16 *13:14 0
13 *11:16 *21:8 0
14 *11:29 *140:A 1.72202e-05
15 *11:29 *20:10 0.000141954
*RES
1 *139:X *11:10 41.9564 
2 *11:10 *11:16 24.3421 
3 *11:16 *144:B 23 
4 *11:16 *11:29 32.9 
5 *11:29 *140:B 23 
6 *11:10 *143:A1 42.9093 
*END

*D_NET *12 0.00106043
*CONN
*I *143:B1 I *D sky130_fd_sc_hd__a21oi_1
*I *141:Y O *D sky130_fd_sc_hd__nor2_1
*CAP
1 *143:B1 0.000242256
2 *141:Y 8.01755e-05
3 *12:8 0.000322432
4 *143:A1 *143:B1 0.000362421
5 *11:10 *12:8 5.31444e-05
*RES
1 *141:Y *12:8 39.5536 
2 *12:8 *143:B1 42.9093 
*END

*D_NET *13 0.00114361
*CONN
*I *143:A2 I *D sky130_fd_sc_hd__a21oi_1
*I *142:Y O *D sky130_fd_sc_hd__nand2b_1
*CAP
1 *143:A2 0
2 *142:Y 0.000558953
3 *13:14 0.000558953
4 *13:14 *19:8 2.57056e-05
5 *11:16 *13:14 0
*RES
1 *142:Y *13:14 46.845 
2 *13:14 *143:A2 38 
*END

*D_NET *14 0.0020928
*CONN
*I *138:B I *D sky130_fd_sc_hd__and2_1
*I *142:B I *D sky130_fd_sc_hd__nand2b_1
*I *145:X O *D sky130_fd_sc_hd__clkbuf_1
*CAP
1 *138:B 7.22436e-05
2 *142:B 0
3 *145:X 0.000655168
4 *14:16 0.000152461
5 *14:8 0.000879872
6 *138:B *16:16 5.50106e-05
7 *14:8 *16:16 5.50049e-05
8 *14:16 *16:16 0.000223043
*RES
1 *145:X *14:8 35.4286 
2 *14:8 *14:16 33.4645 
3 *14:16 *142:B 23 
4 *14:8 *138:B 24.5743 
*END

*D_NET *15 0.000794923
*CONN
*I *141:B I *D sky130_fd_sc_hd__nor2_1
*I *139:B I *D sky130_fd_sc_hd__and2_1
*I *146:X O *D sky130_fd_sc_hd__clkbuf_1
*CAP
1 *141:B 0
2 *139:B 0.000148537
3 *146:X 0.000132402
4 *15:12 0.000182513
5 *15:8 0.000166377
6 *139:B *141:A 6.66152e-05
7 *15:8 *17:10 0
8 *11:10 *139:B 9.84794e-05
*RES
1 *146:X *15:8 40.2579 
2 *15:8 *15:12 15.6214 
3 *15:12 *139:B 26.5214 
4 *15:12 *141:B 23 
*END

*D_NET *16 0.00197009
*CONN
*I *142:A_N I *D sky130_fd_sc_hd__nand2b_1
*I *138:A I *D sky130_fd_sc_hd__and2_1
*I *147:X O *D sky130_fd_sc_hd__clkbuf_1
*CAP
1 *142:A_N 0
2 *138:A 0
3 *147:X 0.000646794
4 *16:16 0.00017172
5 *16:8 0.000818514
6 *138:B *16:16 5.50106e-05
7 *14:8 *16:16 5.50049e-05
8 *14:16 *16:16 0.000223043
*RES
1 *147:X *16:8 34.9521 
2 *16:8 *16:16 34.06 
3 *16:16 *138:A 23 
4 *16:8 *142:A_N 23 
*END

*D_NET *17 0.00048705
*CONN
*I *139:A I *D sky130_fd_sc_hd__and2_1
*I *141:A I *D sky130_fd_sc_hd__nor2_1
*I *148:X O *D sky130_fd_sc_hd__clkbuf_1
*CAP
1 *139:A 0
2 *141:A 3.88154e-05
3 *148:X 0.000171402
4 *17:12 3.88154e-05
5 *17:10 0.000171402
6 *139:B *141:A 6.66152e-05
7 *15:8 *17:10 0
*RES
1 *148:X *17:10 40.5271 
2 *17:10 *17:12 15 
3 *17:12 *141:A 24.1186 
4 *17:12 *139:A 23 
*END

*D_NET *18 0.00263387
*CONN
*I *140:A I *D sky130_fd_sc_hd__and2_1
*I *144:A_N I *D sky130_fd_sc_hd__and2b_1
*I *149:A I *D sky130_fd_sc_hd__buf_2
*I *138:X O *D sky130_fd_sc_hd__and2_1
*CAP
1 *140:A 0.000147526
2 *144:A_N 0
3 *149:A 0
4 *138:X 0.000351119
5 *18:14 0.000752807
6 *18:6 0.00125145
7 *140:A *20:10 5.67058e-05
8 *11:16 *140:A 5.70419e-05
9 *11:29 *140:A 1.72202e-05
*RES
1 *138:X *18:6 28.8621 
2 *18:6 *18:14 43.5886 
3 *18:14 *149:A 23 
4 *18:6 *144:A_N 23 
5 *18:6 *140:A 26.5007 
*END

*D_NET *19 0.000795243
*CONN
*I *150:A I *D sky130_fd_sc_hd__buf_2
*I *143:Y O *D sky130_fd_sc_hd__a21oi_1
*CAP
1 *150:A 4.23312e-05
2 *143:Y 0.000342438
3 *19:8 0.000384769
4 *13:14 *19:8 2.57056e-05
*RES
1 *143:Y *19:8 44.4836 
2 *19:8 *150:A 38.6214 
*END

*D_NET *20 0.00151293
*CONN
*I *151:A I *D sky130_fd_sc_hd__buf_2
*I *144:X O *D sky130_fd_sc_hd__and2b_1
*CAP
1 *151:A 0
2 *144:X 0.000657134
3 *20:10 0.000657134
4 *140:A *20:10 5.67058e-05
5 *11:29 *20:10 0.000141954
*RES
1 *144:X *20:10 36.1743 
2 *20:10 *151:A 23 
*END

*D_NET *21 0.00135603
*CONN
*I *152:A I *D sky130_fd_sc_hd__buf_2
*I *140:X O *D sky130_fd_sc_hd__and2_1
*CAP
1 *152:A 0.000555355
2 *140:X 0.000122661
3 *21:8 0.000678016
4 *11:16 *21:8 0
*RES
1 *140:X *21:8 40.2579 
2 *21:8 *152:A 48.15 
*END
