*SPEF "ieee 1481-1999"
*DESIGN "SARSA_RUIDO_e9"
*DATE "11:31:11 Friday September 12, 2025"
*VENDOR "The OpenROAD Project"
*PROGRAM "OpenROAD"
*VERSION "edf00dff99f6c40d67a30c0e22a8191c5d2ed9d6"
*DESIGN_FLOW "NAME_SCOPE LOCAL" "PIN_CAP NONE"
*DIVIDER /
*DELIMITER :
*BUS_DELIMITER []
*T_UNIT 1 NS
*C_UNIT 1 PF
*R_UNIT 1 OHM
*L_UNIT 1 HENRY

*NAME_MAP
*1 A[0]
*2 A[1]
*3 B[0]
*4 B[1]
*5 P[0]
*6 P[1]
*7 P[2]
*8 P[3]
*11 _0_
*12 _1_
*13 net1
*14 net2
*15 net3
*16 net4
*17 net5
*18 net6
*19 net7
*20 net8
*21 FILLER_0_15
*22 FILLER_0_27
*23 FILLER_0_29
*24 FILLER_0_3
*25 FILLER_0_41
*26 FILLER_0_53
*27 FILLER_0_57
*28 FILLER_0_69
*29 FILLER_1_15
*30 FILLER_1_27
*31 FILLER_1_3
*32 FILLER_1_39
*33 FILLER_1_51
*34 FILLER_1_55
*35 FILLER_1_57
*36 FILLER_1_69
*37 FILLER_2_15
*38 FILLER_2_27
*39 FILLER_2_29
*40 FILLER_2_3
*41 FILLER_2_41
*42 FILLER_2_53
*43 FILLER_2_65
*44 FILLER_2_77
*45 FILLER_3_15
*46 FILLER_3_27
*47 FILLER_3_3
*48 FILLER_3_39
*49 FILLER_3_51
*50 FILLER_3_55
*51 FILLER_3_57
*52 FILLER_3_69
*53 FILLER_4_15
*54 FILLER_4_27
*55 FILLER_4_29
*56 FILLER_4_3
*57 FILLER_4_41
*58 FILLER_4_53
*59 FILLER_4_65
*60 FILLER_5_15
*61 FILLER_5_27
*62 FILLER_5_3
*63 FILLER_5_39
*64 FILLER_5_51
*65 FILLER_5_55
*66 FILLER_5_57
*67 FILLER_5_69
*68 FILLER_6_18
*69 FILLER_6_26
*70 FILLER_6_29
*71 FILLER_6_41
*72 FILLER_6_53
*73 FILLER_6_6
*74 FILLER_6_72
*75 FILLER_6_76
*76 FILLER_7_15
*77 FILLER_7_27
*78 FILLER_7_3
*79 FILLER_7_39
*80 FILLER_7_55
*81 FILLER_7_62
*82 FILLER_7_71
*83 FILLER_7_77
*84 FILLER_8_15
*85 FILLER_8_27
*86 FILLER_8_29
*87 FILLER_8_3
*88 FILLER_8_35
*89 FILLER_8_39
*90 FILLER_8_51
*91 FILLER_8_63
*92 FILLER_8_75
*93 FILLER_9_15
*94 FILLER_9_27
*95 FILLER_9_29
*96 FILLER_9_3
*97 FILLER_9_35
*98 FILLER_9_41
*99 FILLER_9_53
*100 FILLER_9_57
*101 FILLER_9_69
*102 FILLER_9_77
*103 PHY_EDGE_ROW_0_Left_10
*104 PHY_EDGE_ROW_0_Right_0
*105 PHY_EDGE_ROW_1_Left_11
*106 PHY_EDGE_ROW_1_Right_1
*107 PHY_EDGE_ROW_2_Left_12
*108 PHY_EDGE_ROW_2_Right_2
*109 PHY_EDGE_ROW_3_Left_13
*110 PHY_EDGE_ROW_3_Right_3
*111 PHY_EDGE_ROW_4_Left_14
*112 PHY_EDGE_ROW_4_Right_4
*113 PHY_EDGE_ROW_5_Left_15
*114 PHY_EDGE_ROW_5_Right_5
*115 PHY_EDGE_ROW_6_Left_16
*116 PHY_EDGE_ROW_6_Right_6
*117 PHY_EDGE_ROW_7_Left_17
*118 PHY_EDGE_ROW_7_Right_7
*119 PHY_EDGE_ROW_8_Left_18
*120 PHY_EDGE_ROW_8_Right_8
*121 PHY_EDGE_ROW_9_Left_19
*122 PHY_EDGE_ROW_9_Right_9
*123 TAP_TAPCELL_ROW_0_20
*124 TAP_TAPCELL_ROW_0_21
*125 TAP_TAPCELL_ROW_1_22
*126 TAP_TAPCELL_ROW_2_23
*127 TAP_TAPCELL_ROW_3_24
*128 TAP_TAPCELL_ROW_4_25
*129 TAP_TAPCELL_ROW_5_26
*130 TAP_TAPCELL_ROW_6_27
*131 TAP_TAPCELL_ROW_7_28
*132 TAP_TAPCELL_ROW_8_29
*133 TAP_TAPCELL_ROW_9_30
*134 TAP_TAPCELL_ROW_9_31
*135 _2_
*136 _3_
*137 _4_
*138 _5_
*139 _6_
*140 _7_
*141 input1
*142 input2
*143 input3
*144 input4
*145 output5
*146 output6
*147 output7
*148 output8

*PORTS
A[0] I
A[1] I
B[0] I
B[1] I
P[0] O
P[1] O
P[2] O
P[3] O

*D_NET *1 0.000939449
*CONN
*P A[0] I
*I *141:A I *D sky130_fd_sc_hd__buf_1
*CAP
1 A[0] 0.000465169
2 *141:A 0.000465169
3 *141:A P[1] 0
4 *141:A *146:A 9.11048e-06
*RES
1 A[0] *141:A 23.05 
*END

*D_NET *2 0.000677006
*CONN
*P A[1] I
*I *142:A I *D sky130_fd_sc_hd__buf_1
*CAP
1 A[1] 0.000264263
2 *142:A 0.000264263
3 *142:A *144:A 8.57347e-05
4 *142:A *14:8 6.27457e-05
*RES
1 A[1] *142:A 20.2479 
*END

*D_NET *3 0.000506833
*CONN
*P B[0] I
*I *143:A I *D sky130_fd_sc_hd__buf_1
*CAP
1 B[0] 0.000253417
2 *143:A 0.000253417
*RES
1 B[0] *143:A 18.73 
*END

*D_NET *4 0.000483098
*CONN
*P B[1] I
*I *144:A I *D sky130_fd_sc_hd__buf_1
*CAP
1 B[1] 0.000144321
2 *144:A 0.000144321
3 *144:A P[3] 7.66163e-05
4 *144:A *140:B 1.21955e-05
5 *144:A *14:8 1.99099e-05
6 *142:A *144:A 8.57347e-05
*RES
1 B[1] *144:A 18.4264 
*END

*D_NET *5 0.00062747
*CONN
*P P[0] O
*I *145:X O *D sky130_fd_sc_hd__buf_2
*CAP
1 P[0] 0.000267297
2 *145:X 0.000267297
3 P[0] P[2] 9.28756e-05
*RES
1 *145:X P[0] 19.4092 
*END

*D_NET *6 0.000914055
*CONN
*P P[1] O
*I *146:X O *D sky130_fd_sc_hd__buf_2
*CAP
1 P[1] 0.000457028
2 *146:X 0.000457028
3 *141:A P[1] 0
*RES
1 *146:X P[1] 22.8536 
*END

*D_NET *7 0.000573308
*CONN
*P P[2] O
*I *147:X O *D sky130_fd_sc_hd__buf_2
*CAP
1 P[2] 0.000193779
2 *147:X 0.000193779
3 P[2] P[3] 9.28756e-05
4 P[0] P[2] 9.28756e-05
*RES
1 *147:X P[2] 18.8021 
*END

*D_NET *8 0.000500724
*CONN
*P P[3] O
*I *148:X O *D sky130_fd_sc_hd__buf_2
*CAP
1 P[3] 0.000160676
2 *148:X 0.000160676
3 P[3] *147:A 9.87983e-06
4 P[2] P[3] 9.28756e-05
5 *144:A P[3] 7.66163e-05
*RES
1 *148:X P[3] 18.1949 
*END

*D_NET *11 0.00050578
*CONN
*I *139:A I *D sky130_fd_sc_hd__nor2_1
*I *137:X O *D sky130_fd_sc_hd__o211a_1
*CAP
1 *139:A 0.000206568
2 *137:X 0.000206568
3 *139:A *137:A1 6.76962e-05
4 *139:A *13:8 2.49484e-05
*RES
1 *137:X *139:A 30.6 
*END

*D_NET *12 0.00162595
*CONN
*I *139:B I *D sky130_fd_sc_hd__nor2_1
*I *138:Y O *D sky130_fd_sc_hd__a22oi_1
*CAP
1 *139:B 0.000526406
2 *138:Y 0.000526406
3 *139:B *138:B1 3.07555e-05
4 *139:B *146:A 2.42054e-05
5 *139:B *13:29 0.000518177
*RES
1 *138:Y *139:B 38.1 
*END

*D_NET *13 0.00283813
*CONN
*I *135:B I *D sky130_fd_sc_hd__and2_1
*I *138:A1 I *D sky130_fd_sc_hd__a22oi_1
*I *137:A1 I *D sky130_fd_sc_hd__o211a_1
*I *141:X O *D sky130_fd_sc_hd__buf_1
*CAP
1 *135:B 9.25349e-05
2 *138:A1 0
3 *137:A1 0.000190728
4 *141:X 0.000124355
5 *13:29 0.000505473
6 *13:8 0.000728021
7 *135:B *135:A 7.77751e-05
8 *135:B *138:B2 0
9 *135:B *14:29 2.65105e-05
10 *135:B *15:16 7.32272e-05
11 *135:B *16:16 0.000369401
12 *13:8 *146:A 3.92854e-05
13 *139:A *137:A1 6.76962e-05
14 *139:A *13:8 2.49484e-05
15 *139:B *13:29 0.000518177
*RES
1 *141:X *13:8 16.3536 
2 *13:8 *137:A1 17.2107 
3 *13:8 *13:29 19.4821 
4 *13:29 *138:A1 9.3 
5 *13:29 *135:B 13.1393 
*END

*D_NET *14 0.0043079
*CONN
*I *136:B I *D sky130_fd_sc_hd__and3_1
*I *138:B1 I *D sky130_fd_sc_hd__a22oi_1
*I *137:B1 I *D sky130_fd_sc_hd__o211a_1
*I *140:B I *D sky130_fd_sc_hd__and3b_1
*I *142:X O *D sky130_fd_sc_hd__buf_1
*CAP
1 *136:B 0
2 *138:B1 5.21653e-05
3 *137:B1 0.000241806
4 *140:B 0.000423579
5 *142:X 0.000232275
6 *14:29 0.000769901
7 *14:27 0.000644457
8 *14:8 0.000824382
9 *137:B1 *137:A2 1.98693e-05
10 *137:B1 *15:16 0.00011901
11 *138:B1 *15:12 0
12 *140:B *140:C 0
13 *140:B *147:A 3.13838e-05
14 *140:B *148:A 7.6644e-05
15 *14:8 *140:C 0
16 *14:27 *148:A 0.000318101
17 *14:27 *16:8 0.000151619
18 *14:27 *16:10 1.92789e-05
19 *14:29 *135:A 7.32955e-05
20 *14:29 *15:16 5.33433e-05
21 *14:29 *16:10 2.24763e-05
22 *14:29 *16:16 8.21959e-05
23 *135:B *14:29 2.65105e-05
24 *139:B *138:B1 3.07555e-05
25 *142:A *14:8 6.27457e-05
26 *144:A *140:B 1.21955e-05
27 *144:A *14:8 1.99099e-05
*RES
1 *142:X *14:8 18.175 
2 *14:8 *140:B 19.2643 
3 *14:8 *14:27 9.58929 
4 *14:27 *14:29 6.69643 
5 *14:29 *137:B1 12.925 
6 *14:29 *138:B1 19.3357 
7 *14:27 *136:B 9.3 
*END

*D_NET *15 0.00413047
*CONN
*I *137:C1 I *D sky130_fd_sc_hd__o211a_1
*I *135:A I *D sky130_fd_sc_hd__and2_1
*I *138:B2 I *D sky130_fd_sc_hd__a22oi_1
*I *143:X O *D sky130_fd_sc_hd__buf_1
*CAP
1 *137:C1 0
2 *135:A 2.55729e-05
3 *138:B2 1.44573e-05
4 *143:X 0.00171028
5 *15:16 0.000124583
6 *15:12 0.00179484
7 *138:B2 *138:A2 0
8 *15:16 *137:A2 3.04718e-05
9 *15:16 *138:A2 2.14816e-05
10 *15:16 *16:16 1.21289e-05
11 *135:B *135:A 7.77751e-05
12 *135:B *138:B2 0
13 *135:B *15:16 7.32272e-05
14 *137:B1 *15:16 0.00011901
15 *138:B1 *15:12 0
16 *14:29 *135:A 7.32955e-05
17 *14:29 *15:16 5.33433e-05
*RES
1 *143:X *15:12 38.0321 
2 *15:12 *15:16 3.01786 
3 *15:16 *138:B2 9.72857 
4 *15:16 *135:A 10.6571 
5 *15:12 *137:C1 9.3 
*END

*D_NET *16 0.00323083
*CONN
*I *140:C I *D sky130_fd_sc_hd__and3b_1
*I *136:A I *D sky130_fd_sc_hd__and3_1
*I *138:A2 I *D sky130_fd_sc_hd__a22oi_1
*I *137:A2 I *D sky130_fd_sc_hd__o211a_1
*I *144:X O *D sky130_fd_sc_hd__buf_1
*CAP
1 *140:C 0.000223182
2 *136:A 0
3 *138:A2 3.03461e-05
4 *137:A2 0.00019892
5 *144:X 0.000215114
6 *16:16 0.000606677
7 *16:10 0.000414373
8 *16:8 0.000475257
9 *140:C *145:A 0
10 *140:C *148:A 0
11 *140:C *17:10 0
12 *16:10 *136:C 0.00010858
13 *16:16 *136:C 4.27935e-05
14 *16:16 *17:6 0.000186662
15 *135:B *16:16 0.000369401
16 *137:B1 *137:A2 1.98693e-05
17 *138:B2 *138:A2 0
18 *140:B *140:C 0
19 *14:8 *140:C 0
20 *14:27 *16:8 0.000151619
21 *14:27 *16:10 1.92789e-05
22 *14:29 *16:10 2.24763e-05
23 *14:29 *16:16 8.21959e-05
24 *15:16 *137:A2 3.04718e-05
25 *15:16 *138:A2 2.14816e-05
26 *15:16 *16:16 1.21289e-05
*RES
1 *144:X *16:8 13.55 
2 *16:8 *16:10 1.35714 
3 *16:10 *16:16 7.25 
4 *16:16 *137:A2 12.2107 
5 *16:16 *138:A2 10.1795 
6 *16:10 *136:A 9.3 
7 *16:8 *140:C 21.8893 
*END

*D_NET *17 0.00232397
*CONN
*I *136:C I *D sky130_fd_sc_hd__and3_1
*I *140:A_N I *D sky130_fd_sc_hd__and3b_1
*I *145:A I *D sky130_fd_sc_hd__buf_2
*I *135:X O *D sky130_fd_sc_hd__and2_1
*CAP
1 *136:C 9.6092e-05
2 *140:A_N 0
3 *145:A 0.000577633
4 *135:X 0.000119433
5 *17:10 0.000777443
6 *17:6 0.000415335
7 *140:C *145:A 0
8 *140:C *17:10 0
9 *16:10 *136:C 0.00010858
10 *16:16 *136:C 4.27935e-05
11 *16:16 *17:6 0.000186662
*RES
1 *135:X *17:6 11.0679 
2 *17:6 *17:10 7.96429 
3 *17:10 *145:A 23.8357 
4 *17:10 *140:A_N 13.8 
5 *17:6 *136:C 10.7286 
*END

*D_NET *18 0.000658718
*CONN
*I *146:A I *D sky130_fd_sc_hd__buf_2
*I *139:Y O *D sky130_fd_sc_hd__nor2_1
*CAP
1 *146:A 0.000293059
2 *139:Y 0.000293059
3 *139:B *146:A 2.42054e-05
4 *141:A *146:A 9.11048e-06
5 *13:8 *146:A 3.92854e-05
*RES
1 *139:Y *146:A 32.5107 
*END

*D_NET *19 0.000652056
*CONN
*I *147:A I *D sky130_fd_sc_hd__buf_2
*I *140:X O *D sky130_fd_sc_hd__and3b_1
*CAP
1 *147:A 0.000305396
2 *140:X 0.000305396
3 P[3] *147:A 9.87983e-06
4 *140:B *147:A 3.13838e-05
*RES
1 *140:X *147:A 31.8321 
*END

*D_NET *20 0.000988343
*CONN
*I *148:A I *D sky130_fd_sc_hd__buf_2
*I *136:X O *D sky130_fd_sc_hd__and3_1
*CAP
1 *148:A 0.000296799
2 *136:X 0.000296799
3 *140:B *148:A 7.6644e-05
4 *140:C *148:A 0
5 *14:27 *148:A 0.000318101
*RES
1 *136:X *148:A 32.5464 
*END
