*SPEF "ieee 1481-1999"
*DESIGN "mult4_SarsaNStepsRuido_e9_SarsaNStepsRuido_e9_SARSA_RUIDO_e9_SARSA_RUIDO_e9"
*DATE "12:01:14 Wednesday September 17, 2025"
*VENDOR "The OpenROAD Project"
*PROGRAM "OpenROAD"
*VERSION "edf00dff99f6c40d67a30c0e22a8191c5d2ed9d6"
*DESIGN_FLOW "NAME_SCOPE LOCAL" "PIN_CAP NONE"
*DIVIDER /
*DELIMITER :
*BUS_DELIMITER []
*T_UNIT 1 NS
*C_UNIT 1 PF
*R_UNIT 1 OHM
*L_UNIT 1 HENRY

*NAME_MAP
*1 A[0]
*2 A[1]
*3 A[2]
*4 A[3]
*5 B[0]
*6 B[1]
*7 B[2]
*8 B[3]
*9 net16
*10 P[1]
*11 P[2]
*12 P[3]
*13 P[4]
*14 P[5]
*15 P[6]
*16 P[7]
*19 _000_
*20 _001_
*21 _002_
*22 _003_
*23 _004_
*24 _005_
*25 _006_
*26 _007_
*27 _008_
*28 _009_
*29 _010_
*30 _011_
*31 _012_
*32 _013_
*33 _014_
*34 _015_
*35 _016_
*36 _017_
*37 _018_
*38 _019_
*39 _020_
*40 _021_
*41 _022_
*42 _023_
*43 _024_
*44 _025_
*45 _026_
*46 _027_
*47 _028_
*48 _029_
*49 _030_
*50 _031_
*51 _032_
*52 _033_
*53 _034_
*54 _035_
*55 _036_
*56 _037_
*57 _038_
*58 _039_
*59 _040_
*60 _041_
*61 _042_
*62 _043_
*63 _044_
*64 _045_
*65 _046_
*66 _047_
*67 _048_
*68 _049_
*69 _050_
*70 _051_
*71 _052_
*72 net1
*73 net10
*74 net11
*75 net12
*76 net13
*77 net14
*78 net15
*79 net2
*80 net3
*81 net4
*82 net5
*83 net6
*84 net7
*85 net8
*86 net9
*87 FILLER_0_22
*88 FILLER_0_29
*89 FILLER_0_3
*90 FILLER_0_34
*91 FILLER_0_42
*92 FILLER_0_54
*93 FILLER_0_63
*94 FILLER_0_75
*95 FILLER_1_21
*96 FILLER_1_34
*97 FILLER_1_48
*98 FILLER_1_64
*99 FILLER_1_69
*100 FILLER_2_19
*101 FILLER_2_27
*102 FILLER_2_29
*103 FILLER_2_35
*104 FILLER_2_47
*105 FILLER_2_56
*106 FILLER_3_11
*107 FILLER_3_17
*108 FILLER_3_23
*109 FILLER_3_3
*110 FILLER_3_40
*111 FILLER_3_52
*112 FILLER_3_57
*113 FILLER_3_69
*114 FILLER_3_77
*115 FILLER_4_19
*116 FILLER_4_27
*117 FILLER_4_29
*118 FILLER_4_41
*119 FILLER_4_45
*120 FILLER_4_65
*121 FILLER_4_73
*122 FILLER_5_14
*123 FILLER_5_41
*124 FILLER_5_53
*125 FILLER_5_57
*126 FILLER_5_63
*127 FILLER_5_76
*128 FILLER_6_22
*129 FILLER_6_41
*130 FILLER_6_54
*131 FILLER_6_63
*132 FILLER_6_70
*133 FILLER_6_78
*134 FILLER_7_18
*135 FILLER_7_26
*136 FILLER_7_3
*137 FILLER_7_38
*138 FILLER_7_50
*139 FILLER_7_63
*140 FILLER_7_67
*141 FILLER_7_75
*142 FILLER_7_9
*143 FILLER_8_14
*144 FILLER_8_26
*145 FILLER_8_29
*146 FILLER_8_3
*147 FILLER_8_45
*148 FILLER_8_51
*149 FILLER_8_59
*150 FILLER_8_73
*151 FILLER_9_19
*152 FILLER_9_27
*153 FILLER_9_29
*154 FILLER_9_33
*155 FILLER_9_41
*156 FILLER_9_49
*157 FILLER_9_55
*158 FILLER_9_57
*159 FILLER_9_69
*160 FILLER_9_7
*161 FILLER_9_73
*162 PHY_EDGE_ROW_0_Left_10
*163 PHY_EDGE_ROW_0_Right_0
*164 PHY_EDGE_ROW_1_Left_11
*165 PHY_EDGE_ROW_1_Right_1
*166 PHY_EDGE_ROW_2_Left_12
*167 PHY_EDGE_ROW_2_Right_2
*168 PHY_EDGE_ROW_3_Left_13
*169 PHY_EDGE_ROW_3_Right_3
*170 PHY_EDGE_ROW_4_Left_14
*171 PHY_EDGE_ROW_4_Right_4
*172 PHY_EDGE_ROW_5_Left_15
*173 PHY_EDGE_ROW_5_Right_5
*174 PHY_EDGE_ROW_6_Left_16
*175 PHY_EDGE_ROW_6_Right_6
*176 PHY_EDGE_ROW_7_Left_17
*177 PHY_EDGE_ROW_7_Right_7
*178 PHY_EDGE_ROW_8_Left_18
*179 PHY_EDGE_ROW_8_Right_8
*180 PHY_EDGE_ROW_9_Left_19
*181 PHY_EDGE_ROW_9_Right_9
*182 TAP_TAPCELL_ROW_0_20
*183 TAP_TAPCELL_ROW_0_21
*184 TAP_TAPCELL_ROW_1_22
*185 TAP_TAPCELL_ROW_2_23
*186 TAP_TAPCELL_ROW_3_24
*187 TAP_TAPCELL_ROW_4_25
*188 TAP_TAPCELL_ROW_5_26
*189 TAP_TAPCELL_ROW_6_27
*190 TAP_TAPCELL_ROW_7_28
*191 TAP_TAPCELL_ROW_8_29
*192 TAP_TAPCELL_ROW_9_30
*193 TAP_TAPCELL_ROW_9_31
*194 _053_
*195 _054_
*196 _055_
*197 _056_
*198 _057_
*199 _058_
*200 _059_
*201 _060_
*202 _061_
*203 _062_
*204 _063_
*205 _064_
*206 _065_
*207 _066_
*208 _067_
*209 _068_
*210 _069_
*211 _070_
*212 _071_
*213 _072_
*214 _073_
*215 _074_
*216 _075_
*217 _076_
*218 _077_
*219 _078_
*220 _079_
*221 _080_
*222 _081_
*223 _082_
*224 _083_
*225 _084_
*226 _085_
*227 _086_
*228 _087_
*229 _088_
*230 _089_
*231 _090_
*232 _091_
*233 _092_
*234 _093_
*235 _094_
*236 _095_
*237 _096_
*238 _097_
*239 _098_
*240 _099_
*241 _100_
*242 _101_
*243 _102_
*244 _103_
*245 _104_
*246 _105_
*247 _106_
*248 _107_
*249 _108_
*250 _109_
*251 _110_
*252 _111_
*253 _112_
*254 input1
*255 input2
*256 input3
*257 input4
*258 input5
*259 input6
*260 input7
*261 input8
*262 mult4_SarsaNStepsRuido_e9_SarsaNStepsRuido_e9_SARSA_RUIDO_e9_SARSA_RUIDO_e9_16
*263 output10
*264 output11
*265 output12
*266 output13
*267 output14
*268 output15
*269 output9

*PORTS
A[0] I
A[1] I
A[2] I
A[3] I
B[0] I
B[1] I
B[2] I
B[3] I
P[0] O
P[1] O
P[2] O
P[3] O
P[4] O
P[5] O
P[6] O
P[7] O

*D_NET *1 0.000521144
*CONN
*P A[0] I
*I *254:A I *D sky130_fd_sc_hd__dlymetal6s2s_1
*CAP
1 A[0] 0.000233715
2 *254:A 0.000233715
3 *254:A P[1] 2.87684e-05
4 *254:A P[2] 0
5 *254:A *72:8 2.49459e-05
*RES
1 A[0] *254:A 18.73 
*END

*D_NET *2 0.0007389
*CONN
*P A[1] I
*I *255:A I *D sky130_fd_sc_hd__clkbuf_2
*CAP
1 A[1] 0.000340865
2 *255:A 0.000340865
3 *255:A P[1] 2.99915e-05
4 *255:A *258:A 2.71788e-05
5 *255:A *79:10 0
6 *255:A *82:21 0
*RES
1 A[1] *255:A 21.8017 
*END

*D_NET *3 0.000968498
*CONN
*P A[2] I
*I *256:A I *D sky130_fd_sc_hd__clkbuf_2
*CAP
1 A[2] 0.000443307
2 *256:A 0.000443307
3 *256:A *234:A 5.62995e-05
4 *256:A *234:B 9.25014e-06
5 *256:A *257:A 0
6 *256:A *80:28 1.02821e-05
7 *256:A *80:43 6.05161e-06
*RES
1 A[2] *256:A 22.6571 
*END

*D_NET *4 0.000926734
*CONN
*P A[3] I
*I *257:A I *D sky130_fd_sc_hd__clkbuf_2
*CAP
1 A[3] 0.000413845
2 *257:A 0.000413845
3 *257:A *56:6 9.90431e-05
4 *256:A *257:A 0
*RES
1 A[3] *257:A 21.9429 
*END

*D_NET *5 0.000672973
*CONN
*P B[0] I
*I *258:A I *D sky130_fd_sc_hd__clkbuf_2
*CAP
1 B[0] 0.000309308
2 *258:A 0.000309308
3 *258:A *259:A 2.71788e-05
4 *255:A *258:A 2.71788e-05
*RES
1 B[0] *258:A 21.1946 
*END

*D_NET *6 0.00058051
*CONN
*P B[1] I
*I *259:A I *D sky130_fd_sc_hd__dlymetal6s2s_1
*CAP
1 B[1] 0.000276666
2 *259:A 0.000276666
3 *258:A *259:A 2.71788e-05
*RES
1 B[1] *259:A 20.4803 
*END

*D_NET *7 0.000896064
*CONN
*P B[2] I
*I *260:A I *D sky130_fd_sc_hd__clkbuf_2
*CAP
1 B[2] 0.000420167
2 *260:A 0.000420167
3 *260:A *80:54 5.33433e-05
4 *260:A *84:10 2.38651e-06
*RES
1 B[2] *260:A 21.9429 
*END

*D_NET *8 0.000415449
*CONN
*P B[3] I
*I *261:A I *D sky130_fd_sc_hd__dlymetal6s2s_1
*CAP
1 B[3] 0.000164857
2 *261:A 0.000164857
3 *261:A P[7] 8.57347e-05
4 *261:A *252:A3 0
*RES
1 B[3] *261:A 18.1229 
*END

*D_NET *9 0.000688181
*CONN
*P P[0] O
*I *262:LO O *D sky130_fd_sc_hd__conb_1
*CAP
1 P[0] 0.000292527
2 *262:LO 0.000292527
3 P[0] P[4] 9.28756e-05
4 P[0] *265:A 1.02504e-05
*RES
1 *262:LO P[0] 19.0183 
*END

*D_NET *10 0.000725588
*CONN
*P P[1] O
*I *269:X O *D sky130_fd_sc_hd__buf_2
*CAP
1 P[1] 0.000333414
2 *269:X 0.000333414
3 *254:A P[1] 2.87684e-05
4 *255:A P[1] 2.99915e-05
*RES
1 *269:X P[1] 20.891 
*END

*D_NET *11 0.000636025
*CONN
*P P[2] O
*I *263:X O *D sky130_fd_sc_hd__buf_2
*CAP
1 P[2] 0.000318013
2 *263:X 0.000318013
3 P[2] *263:A 0
4 *254:A P[2] 0
*RES
1 *263:X P[2] 19.4092 
*END

*D_NET *12 0.000951893
*CONN
*P P[3] O
*I *264:X O *D sky130_fd_sc_hd__buf_2
*CAP
1 P[3] 0.000475946
2 *264:X 0.000475946
*RES
1 *264:X P[3] 23.2643 
*END

*D_NET *13 0.000648301
*CONN
*P P[4] O
*I *265:X O *D sky130_fd_sc_hd__buf_2
*CAP
1 P[4] 0.000211632
2 *265:X 0.000211632
3 P[4] P[5] 9.28756e-05
4 P[4] *265:A 3.92854e-05
5 P[0] P[4] 9.28756e-05
*RES
1 *265:X P[4] 19.4092 
*END

*D_NET *14 0.000476822
*CONN
*P P[5] O
*I *266:X O *D sky130_fd_sc_hd__buf_2
*CAP
1 P[5] 0.000191973
2 *266:X 0.000191973
3 P[5] P[6] 0
4 P[5] *244:A 0
5 P[4] P[5] 9.28756e-05
*RES
1 *266:X P[5] 18.1949 
*END

*D_NET *15 0.000572846
*CONN
*P P[6] O
*I *267:X O *D sky130_fd_sc_hd__buf_2
*CAP
1 P[6] 0.000223052
2 *267:X 0.000223052
3 P[6] P[7] 9.28756e-05
4 P[6] *267:A 3.38674e-05
5 P[5] P[6] 0
*RES
1 *267:X P[6] 18.8021 
*END

*D_NET *16 0.000644345
*CONN
*P P[7] O
*I *268:X O *D sky130_fd_sc_hd__buf_2
*CAP
1 P[7] 0.000213225
2 *268:X 0.000213225
3 P[7] *268:A 3.92854e-05
4 P[7] *68:10 0
5 P[6] P[7] 9.28756e-05
6 *261:A P[7] 8.57347e-05
*RES
1 *268:X P[7] 19.4092 
*END

*D_NET *19 0.000953008
*CONN
*I *199:A1 I *D sky130_fd_sc_hd__a21o_1
*I *196:B1 I *D sky130_fd_sc_hd__o211a_1
*I *194:Y O *D sky130_fd_sc_hd__nand3_1
*CAP
1 *199:A1 0.000151161
2 *196:B1 0.000151726
3 *194:Y 0
4 *19:4 0.000302887
5 *196:B1 *194:A 0.00010096
6 *196:B1 *194:B 4.40401e-05
7 *196:B1 *196:C1 5.33005e-05
8 *199:A1 *198:B 5.33978e-05
9 *199:A1 *24:23 9.55363e-05
10 *199:A1 *79:42 0
*RES
1 *194:Y *19:4 9.3 
2 *19:4 *196:B1 12.6393 
3 *19:4 *199:A1 21.7643 
*END

*D_NET *20 0.000743959
*CONN
*I *196:C1 I *D sky130_fd_sc_hd__o211a_1
*I *195:X O *D sky130_fd_sc_hd__a21o_1
*CAP
1 *196:C1 0.000180383
2 *195:X 0.000180383
3 *196:C1 *194:B 5.33005e-05
4 *196:C1 *205:A 5.52302e-05
5 *196:C1 *24:23 0.000121573
6 *196:C1 *79:16 3.30237e-05
7 *196:C1 *83:36 6.09572e-05
8 *196:C1 *83:47 5.80706e-06
9 *196:B1 *196:C1 5.33005e-05
*RES
1 *195:X *196:C1 31.1357 
*END

*D_NET *21 0.0021118
*CONN
*I *216:A I *D sky130_fd_sc_hd__nand4_1
*I *218:B1 I *D sky130_fd_sc_hd__a31o_1
*I *199:B1 I *D sky130_fd_sc_hd__a21o_1
*I *197:X O *D sky130_fd_sc_hd__and4_1
*CAP
1 *216:A 0.000246438
2 *218:B1 2.23854e-05
3 *199:B1 2.06112e-05
4 *197:X 0.000129154
5 *21:21 0.00068017
6 *21:12 0.000561112
7 *199:B1 *199:A2 3.99614e-06
8 *216:A *216:B 5.52238e-05
9 *216:A *216:C 4.69633e-05
10 *216:A *216:D 0.000141734
11 *216:A *218:A1 4.64785e-05
12 *218:B1 *216:C 0
13 *21:12 *23:12 2.51343e-06
14 *21:12 *24:23 0.00010326
15 *21:12 *72:8 0
16 *21:21 *199:A2 5.17614e-05
*RES
1 *197:X *21:12 20.5857 
2 *21:12 *199:B1 9.72857 
3 *21:12 *21:21 6.28571 
4 *21:21 *218:B1 9.72857 
5 *21:21 *216:A 13.9607 
*END

*D_NET *22 0.00018401
*CONN
*I *199:A2 I *D sky130_fd_sc_hd__a21o_1
*I *198:Y O *D sky130_fd_sc_hd__nand2_1
*CAP
1 *199:A2 6.41262e-05
2 *198:Y 6.41262e-05
3 *199:B1 *199:A2 3.99614e-06
4 *21:21 *199:A2 5.17614e-05
*RES
1 *198:Y *199:A2 19.975 
*END

*D_NET *23 0.000642455
*CONN
*I *201:A I *D sky130_fd_sc_hd__nand2_1
*I *202:A I *D sky130_fd_sc_hd__or2_1
*I *199:X O *D sky130_fd_sc_hd__a21o_1
*CAP
1 *201:A 6.19763e-05
2 *202:A 0
3 *199:X 0.000149227
4 *23:12 0.000211203
5 *201:A *201:B 5.52302e-05
6 *201:A *202:B 9.71197e-05
7 *23:12 *24:23 6.5185e-05
8 *21:12 *23:12 2.51343e-06
*RES
1 *199:X *23:12 20.7821 
2 *23:12 *202:A 9.3 
3 *23:12 *201:A 10.6571 
*END

*D_NET *24 0.00272649
*CONN
*I *201:B I *D sky130_fd_sc_hd__nand2_1
*I *202:B I *D sky130_fd_sc_hd__or2_1
*I *205:C I *D sky130_fd_sc_hd__and3_1
*I *200:Y O *D sky130_fd_sc_hd__nand2_1
*CAP
1 *201:B 8.01599e-05
2 *202:B 0.000119905
3 *205:C 1.35299e-05
4 *200:Y 0.000329687
5 *24:23 0.000583806
6 *24:10 0.000726957
7 *205:C *79:16 9.50968e-06
8 *24:10 *205:B 0
9 *24:10 *219:A2 2.99032e-05
10 *24:10 *219:B1 5.71472e-05
11 *24:10 *72:37 2.8266e-06
12 *24:10 *79:20 0
13 *24:10 *82:54 3.41944e-05
14 *24:10 *83:25 7.19995e-05
15 *24:10 *83:36 2.8266e-06
16 *24:23 *198:B 0
17 *24:23 *72:8 0
18 *24:23 *72:37 3.34672e-05
19 *24:23 *79:42 0
20 *24:23 *83:36 4.038e-06
21 *24:23 *83:47 8.86261e-05
22 *196:C1 *24:23 0.000121573
23 *199:A1 *24:23 9.55363e-05
24 *201:A *201:B 5.52302e-05
25 *201:A *202:B 9.71197e-05
26 *21:12 *24:23 0.00010326
27 *23:12 *24:23 6.5185e-05
*RES
1 *200:Y *24:10 18.6393 
2 *24:10 *205:C 13.9964 
3 *24:10 *24:23 13.7321 
4 *24:23 *202:B 11.4964 
5 *24:23 *201:B 11.0857 
*END

*D_NET *25 0.000457288
*CONN
*I *203:A I *D sky130_fd_sc_hd__and2_1
*I *201:Y O *D sky130_fd_sc_hd__nand2_1
*CAP
1 *203:A 0.000122752
2 *201:Y 0.000122752
3 *203:A *203:B 5.52238e-05
4 *203:A *26:10 0.00010326
5 *203:A *26:25 5.33005e-05
*RES
1 *201:Y *203:A 30.1893 
*END

*D_NET *26 0.00276313
*CONN
*I *253:A I *D sky130_fd_sc_hd__xnor2_1
*I *227:A I *D sky130_fd_sc_hd__or3_1
*I *203:B I *D sky130_fd_sc_hd__and2_1
*I *202:X O *D sky130_fd_sc_hd__or2_1
*CAP
1 *253:A 0.000221107
2 *227:A 2.23854e-05
3 *203:B 0.000104116
4 *202:X 5.77931e-05
5 *26:25 0.000775278
6 *26:10 0.000693694
7 *227:A *217:A 0
8 *227:A *223:A 0
9 *253:A *223:A 2.44318e-05
10 *253:A *223:B 2.14658e-05
11 *253:A *253:B 0.000217187
12 *26:25 *217:A 1.69142e-05
13 *26:25 *223:A 6.16664e-05
14 *26:25 *226:A 5.49544e-05
15 *26:25 *227:C 5.65955e-05
16 *26:25 *253:B 0.000100262
17 *26:25 *45:23 6.85372e-05
18 *26:25 *48:14 5.49544e-05
19 *203:A *203:B 5.52238e-05
20 *203:A *26:10 0.00010326
21 *203:A *26:25 5.33005e-05
*RES
1 *202:X *26:10 19.6393 
2 *26:10 *203:B 11.0857 
3 *26:10 *26:25 10.8393 
4 *26:25 *227:A 9.72857 
5 *26:25 *253:A 22.7464 
*END

*D_NET *27 0.00437545
*CONN
*I *213:A I *D sky130_fd_sc_hd__xnor2_1
*I *238:A1 I *D sky130_fd_sc_hd__o21a_1
*I *239:A1 I *D sky130_fd_sc_hd__o211a_1
*I *251:A I *D sky130_fd_sc_hd__nand2_1
*I *245:C I *D sky130_fd_sc_hd__and3_1
*I *204:Y O *D sky130_fd_sc_hd__nand2_1
*CAP
1 *213:A 0.00027333
2 *238:A1 0.000161266
3 *239:A1 0
4 *251:A 0.000267399
5 *245:C 0
6 *204:Y 3.92359e-05
7 *27:44 0.000161266
8 *27:42 0.000462441
9 *27:14 0.000562041
10 *27:8 0.000522988
11 *213:A *213:B 0.000529879
12 *213:A *35:19 4.56437e-05
13 *213:A *36:6 1.98839e-05
14 *213:A *61:10 0.000116545
15 *238:A1 *238:A2 3.48705e-05
16 *238:A1 *238:B1 0.000269333
17 *238:A1 *240:B 0.000186669
18 *251:A *204:B 8.39717e-05
19 *251:A *247:B 1.63058e-05
20 *251:A *251:B 5.52302e-05
21 *251:A *252:A3 1.33343e-05
22 *251:A *67:10 0.000109044
23 *251:A *81:89 0
24 *251:A *84:77 4.8347e-06
25 *27:8 *85:23 5.52238e-05
26 *27:14 *204:A 3.40128e-05
27 *27:14 *204:B 0.000119135
28 *27:14 *252:A1 0
29 *27:14 *81:89 1.19402e-05
30 *27:14 *85:12 7.00484e-07
31 *27:14 *85:23 8.25843e-06
32 *27:14 *85:25 0
33 *27:14 *85:53 0
34 *27:42 *252:A1 0
35 *27:42 *35:10 0.00020042
36 *27:42 *35:19 1.02504e-05
37 *27:42 *85:53 0
*RES
1 *204:Y *27:8 14.3357 
2 *27:8 *27:14 8.82589 
3 *27:14 *245:C 9.3 
4 *27:14 *251:A 23.3179 
5 *27:8 *27:42 4.07143 
6 *27:42 *27:44 4.5 
7 *27:44 *239:A1 9.3 
8 *27:44 *238:A1 14.1036 
9 *27:42 *213:A 21.3714 
*END

*D_NET *28 0.00309331
*CONN
*I *211:A I *D sky130_fd_sc_hd__nand2_1
*I *212:A I *D sky130_fd_sc_hd__xor2_1
*I *205:X O *D sky130_fd_sc_hd__and3_1
*CAP
1 *211:A 0.000206012
2 *212:A 0
3 *205:X 0.000712254
4 *28:18 0.000918267
5 *211:A *35:10 0.000101383
6 *28:18 *205:B 0.00014285
7 *28:18 *206:A 5.23057e-05
8 *28:18 *210:A1 0.000164314
9 *28:18 *210:B1 7.00332e-05
10 *28:18 *212:B 0.000184521
11 *28:18 *29:6 0.000172782
12 *28:18 *30:14 0.000145693
13 *28:18 *31:6 0.000152621
14 *28:18 *31:23 1.37621e-05
15 *28:18 *72:37 9.22103e-06
16 *28:18 *79:16 4.72917e-05
*RES
1 *205:X *28:18 23.1929 
2 *28:18 *212:A 9.3 
3 *28:18 *211:A 13.4071 
*END

*D_NET *29 0.00140405
*CONN
*I *210:A1 I *D sky130_fd_sc_hd__a21o_1
*I *209:A1 I *D sky130_fd_sc_hd__a21oi_1
*I *206:Y O *D sky130_fd_sc_hd__nand2_1
*CAP
1 *210:A1 3.61075e-05
2 *209:A1 0.000124778
3 *206:Y 7.10285e-05
4 *29:6 0.000231914
5 *209:A1 *209:A2 0.000200406
6 *210:A1 *209:A2 9.83442e-05
7 *210:A1 *30:14 2.61505e-05
8 *29:6 *206:B 0.000186662
9 *29:6 *209:A2 5.33005e-05
10 *29:6 *72:37 2.44318e-05
11 *29:6 *85:59 1.38323e-05
12 *28:18 *210:A1 0.000164314
13 *28:18 *29:6 0.000172782
*RES
1 *206:Y *29:6 12.3 
2 *29:6 *209:A1 20.8536 
3 *29:6 *210:A1 11.0857 
*END

*D_NET *30 0.00333928
*CONN
*I *218:A1 I *D sky130_fd_sc_hd__a31o_1
*I *216:B I *D sky130_fd_sc_hd__nand4_1
*I *210:A2 I *D sky130_fd_sc_hd__a21o_1
*I *209:A2 I *D sky130_fd_sc_hd__a21oi_1
*I *207:Y O *D sky130_fd_sc_hd__nand3_1
*CAP
1 *218:A1 0.000223241
2 *216:B 3.92359e-05
3 *210:A2 0
4 *209:A2 0.000125075
5 *207:Y 0
6 *30:34 0.000389583
7 *30:14 0.00046116
8 *30:6 0.000463191
9 *209:A2 *208:D 2.36643e-05
10 *209:A2 *44:10 0.000146474
11 *209:A2 *85:59 5.49544e-05
12 *218:A1 *216:C 0.000233898
13 *218:A1 *41:12 0.000187041
14 *30:14 *206:B 0
15 *30:14 *84:10 7.6644e-05
16 *30:14 *84:29 0.00019117
17 *30:34 *207:C 4.90803e-05
18 *30:34 *214:B 1.58435e-05
19 *30:34 *84:29 3.34295e-05
20 *209:A1 *209:A2 0.000200406
21 *210:A1 *209:A2 9.83442e-05
22 *210:A1 *30:14 2.61505e-05
23 *216:A *216:B 5.52238e-05
24 *216:A *218:A1 4.64785e-05
25 *28:18 *30:14 0.000145693
26 *29:6 *209:A2 5.33005e-05
*RES
1 *207:Y *30:6 13.8 
2 *30:6 *30:14 10.875 
3 *30:14 *209:A2 22.5143 
4 *30:14 *210:A2 9.3 
5 *30:6 *30:34 2.55357 
6 *30:34 *216:B 14.3357 
7 *30:34 *218:A1 19.1036 
*END

*D_NET *31 0.00211654
*CONN
*I *209:B1 I *D sky130_fd_sc_hd__a21oi_1
*I *236:A I *D sky130_fd_sc_hd__xnor2_1
*I *235:A I *D sky130_fd_sc_hd__nand2_1
*I *210:B1 I *D sky130_fd_sc_hd__a21o_1
*I *208:X O *D sky130_fd_sc_hd__and4_1
*CAP
1 *209:B1 0
2 *236:A 8.61686e-05
3 *235:A 0.00020704
4 *210:B1 3.88788e-05
5 *208:X 0.000133393
6 *31:31 0.000462945
7 *31:23 0.000404297
8 *31:6 0.000406832
9 *235:A *236:B 0
10 *31:23 *211:B 4.6982e-05
11 *31:23 *84:10 9.01238e-05
12 *31:31 *211:B 3.466e-06
13 *28:18 *210:B1 7.00332e-05
14 *28:18 *31:6 0.000152621
15 *28:18 *31:23 1.37621e-05
*RES
1 *208:X *31:6 11.0679 
2 *31:6 *210:B1 10.3357 
3 *31:6 *31:23 13.5536 
4 *31:23 *31:31 7.51786 
5 *31:31 *235:A 17.3179 
6 *31:31 *236:A 15.1571 
7 *31:23 *209:B1 9.3 
*END

*D_NET *32 0.00153683
*CONN
*I *211:B I *D sky130_fd_sc_hd__nand2_1
*I *209:Y O *D sky130_fd_sc_hd__a21oi_1
*CAP
1 *211:B 0.000593426
2 *209:Y 0.000593426
3 *211:B *59:12 0.000148903
4 *211:B *85:53 0.000150625
5 *31:23 *211:B 4.6982e-05
6 *31:31 *211:B 3.466e-06
*RES
1 *209:Y *211:B 35.8321 
*END

*D_NET *33 0.000335153
*CONN
*I *212:B I *D sky130_fd_sc_hd__xor2_1
*I *210:X O *D sky130_fd_sc_hd__a21o_1
*CAP
1 *212:B 7.53157e-05
2 *210:X 7.53157e-05
3 *28:18 *212:B 0.000184521
*RES
1 *210:X *212:B 20.3679 
*END

*D_NET *34 0.00127451
*CONN
*I *238:B1 I *D sky130_fd_sc_hd__o21a_1
*I *239:C1 I *D sky130_fd_sc_hd__o211a_1
*I *211:Y O *D sky130_fd_sc_hd__nand2_1
*CAP
1 *238:B1 0.000155047
2 *239:C1 0
3 *211:Y 5.97683e-05
4 *34:10 0.000214815
5 *238:B1 *238:A2 0.000315158
6 *238:B1 *240:B 8.40933e-05
7 *34:10 *239:B1 2.84494e-05
8 *34:10 *35:10 2.28335e-05
9 *34:10 *85:53 0.00012501
10 *238:A1 *238:B1 0.000269333
*RES
1 *211:Y *34:10 19.9429 
2 *34:10 *239:C1 9.3 
3 *34:10 *238:B1 14.3893 
*END

*D_NET *35 0.00278368
*CONN
*I *213:B I *D sky130_fd_sc_hd__xnor2_1
*I *238:A2 I *D sky130_fd_sc_hd__o21a_1
*I *239:A2 I *D sky130_fd_sc_hd__o211a_1
*I *212:X O *D sky130_fd_sc_hd__xor2_1
*CAP
1 *213:B 0.000252521
2 *238:A2 0.000184414
3 *239:A2 0
4 *212:X 0.000239151
5 *35:19 0.000466904
6 *35:10 0.000269121
7 *213:B *36:6 5.52238e-05
8 *213:B *62:14 0
9 *35:10 *239:B1 5.59013e-05
10 *35:10 *85:53 0
11 *35:19 *85:53 0
12 *211:A *35:10 0.000101383
13 *213:A *213:B 0.000529879
14 *213:A *35:19 4.56437e-05
15 *238:A1 *238:A2 3.48705e-05
16 *238:B1 *238:A2 0.000315158
17 *27:42 *35:10 0.00020042
18 *27:42 *35:19 1.02504e-05
19 *34:10 *35:10 2.28335e-05
*RES
1 *212:X *35:10 18.9429 
2 *35:10 *239:A2 13.8 
3 *35:10 *35:19 0.732143 
4 *35:19 *238:A2 17.6214 
5 *35:19 *213:B 20.2464 
*END

*D_NET *36 0.00186028
*CONN
*I *229:A I *D sky130_fd_sc_hd__or2_1
*I *224:A I *D sky130_fd_sc_hd__xnor2_1
*I *242:B1 I *D sky130_fd_sc_hd__a21o_1
*I *243:A I *D sky130_fd_sc_hd__or3_1
*I *213:Y O *D sky130_fd_sc_hd__xnor2_1
*CAP
1 *229:A 4.90041e-05
2 *224:A 0.000111693
3 *242:B1 0
4 *243:A 2.23854e-05
5 *213:Y 0.00015637
6 *36:28 0.000251284
7 *36:19 0.000215059
8 *36:6 0.000303227
9 *224:A *46:17 0.000197498
10 *224:A *50:6 4.88637e-05
11 *224:A *50:10 0.00014183
12 *229:A *228:A 5.71472e-05
13 *229:A *228:B 3.18676e-05
14 *36:6 *241:A_N 1.92905e-05
15 *36:19 *241:A_N 1.74352e-05
16 *36:19 *243:B 8.39e-05
17 *36:19 *52:12 0
18 *36:28 *243:B 2.82057e-05
19 *36:28 *46:17 5.01117e-05
20 *36:28 *52:12 0
21 *213:A *36:6 1.98839e-05
22 *213:B *36:6 5.52238e-05
*RES
1 *213:Y *36:6 11.8893 
2 *36:6 *243:A 9.72857 
3 *36:6 *36:19 7.28571 
4 *36:19 *242:B1 13.8 
5 *36:19 *36:28 1.94643 
6 *36:28 *224:A 16.9429 
7 *36:28 *229:A 14.8714 
*END

*D_NET *37 0.00092125
*CONN
*I *216:C I *D sky130_fd_sc_hd__nand4_1
*I *218:A2 I *D sky130_fd_sc_hd__a31o_1
*I *214:X O *D sky130_fd_sc_hd__or2_1
*CAP
1 *216:C 6.15105e-05
2 *218:A2 0
3 *214:X 7.99127e-05
4 *37:10 0.000141423
5 *216:C *216:D 0.000141734
6 *37:10 *38:12 0.000123359
7 *37:10 *44:10 9.24491e-05
8 *216:A *216:C 4.69633e-05
9 *218:A1 *216:C 0.000233898
10 *218:B1 *216:C 0
*RES
1 *214:X *37:10 20.55 
2 *37:10 *218:A2 9.3 
3 *37:10 *216:C 11.9071 
*END

*D_NET *38 0.00081125
*CONN
*I *216:D I *D sky130_fd_sc_hd__nand4_1
*I *218:A3 I *D sky130_fd_sc_hd__a31o_1
*I *215:X O *D sky130_fd_sc_hd__a21o_1
*CAP
1 *216:D 2.35288e-05
2 *218:A3 0
3 *215:X 0.000148165
4 *38:12 0.000171694
5 *38:12 *207:B 6.10348e-05
6 *216:A *216:D 0.000141734
7 *216:C *216:D 0.000141734
8 *37:10 *38:12 0.000123359
*RES
1 *215:X *38:12 20.8893 
2 *38:12 *218:A3 9.3 
3 *38:12 *216:D 10.6571 
*END

*D_NET *39 0.00213417
*CONN
*I *217:A I *D sky130_fd_sc_hd__inv_2
*I *225:A1 I *D sky130_fd_sc_hd__a21oi_1
*I *222:A I *D sky130_fd_sc_hd__and3_1
*I *216:Y O *D sky130_fd_sc_hd__nand4_1
*CAP
1 *217:A 0.000368732
2 *225:A1 0
3 *222:A 0.000157195
4 *216:Y 0.000152218
5 *39:12 0.000243252
6 *39:8 0.000607007
7 *217:A *223:A 0.000310673
8 *222:A *222:C 6.28499e-05
9 *222:A *225:A2 3.18747e-05
10 *222:A *225:B1 0.00015148
11 *222:A *48:14 1.60354e-05
12 *39:8 *41:12 0
13 *39:8 *44:10 0
14 *39:12 *225:A2 1.59373e-05
15 *227:A *217:A 0
16 *26:25 *217:A 1.69142e-05
*RES
1 *216:Y *39:8 16.05 
2 *39:8 *39:12 5.85714 
3 *39:12 *222:A 13.2821 
4 *39:12 *225:A1 9.3 
5 *39:8 *217:A 19.2821 
*END

*D_NET *40 0.000918398
*CONN
*I *223:A I *D sky130_fd_sc_hd__nor2_1
*I *217:Y O *D sky130_fd_sc_hd__inv_2
*CAP
1 *223:A 0.000138709
2 *217:Y 0.000138709
3 *223:A *223:B 3.48143e-05
4 *223:A *226:A 5.49544e-05
5 *223:A *227:C 4.33899e-05
6 *223:A *48:14 5.49544e-05
7 *223:A *50:6 5.60962e-05
8 *217:A *223:A 0.000310673
9 *227:A *223:A 0
10 *253:A *223:A 2.44318e-05
11 *26:25 *223:A 6.16664e-05
*RES
1 *217:Y *223:A 23.2607 
*END

*D_NET *41 0.001195
*CONN
*I *225:A2 I *D sky130_fd_sc_hd__a21oi_1
*I *222:B I *D sky130_fd_sc_hd__and3_1
*I *218:X O *D sky130_fd_sc_hd__a31o_1
*CAP
1 *225:A2 0.000193658
2 *222:B 0
3 *218:X 0.000168693
4 *41:12 0.000362351
5 *225:A2 *225:B1 0.00015536
6 *41:12 *44:10 8.00806e-05
7 *218:A1 *41:12 0.000187041
8 *222:A *225:A2 3.18747e-05
9 *39:8 *41:12 0
10 *39:12 *225:A2 1.59373e-05
*RES
1 *218:X *41:12 21.1036 
2 *41:12 *222:B 9.3 
3 *41:12 *225:A2 13.05 
*END

*D_NET *42 0.000145222
*CONN
*I *221:A I *D sky130_fd_sc_hd__nor2_1
*I *219:Y O *D sky130_fd_sc_hd__a22oi_1
*CAP
1 *221:A 2.9798e-05
2 *219:Y 2.9798e-05
3 *221:A *219:B1 7.81901e-05
4 *221:A *219:B2 7.43578e-06
*RES
1 *219:Y *221:A 19.5643 
*END

*D_NET *43 0.000435183
*CONN
*I *221:B I *D sky130_fd_sc_hd__nor2_1
*I *220:X O *D sky130_fd_sc_hd__o211a_1
*CAP
1 *221:B 0.00011984
2 *220:X 0.00011984
3 *221:B *219:B1 5.52238e-05
4 *221:B *44:10 1.21258e-05
5 *221:B *81:32 0.000128154
*RES
1 *220:X *221:B 30.1893 
*END

*D_NET *44 0.00333681
*CONN
*I *222:C I *D sky130_fd_sc_hd__and3_1
*I *225:B1 I *D sky130_fd_sc_hd__a21oi_1
*I *221:Y O *D sky130_fd_sc_hd__nor2_1
*CAP
1 *222:C 9.81375e-05
2 *225:B1 5.8031e-05
3 *221:Y 0.000962336
4 *44:10 0.0011185
5 *44:10 *198:A 0
6 *44:10 *214:A 8.12049e-05
7 *44:10 *219:B1 2.89016e-05
8 *44:10 *72:52 0.000193165
9 *44:10 *85:59 9.57064e-05
10 *209:A2 *44:10 0.000146474
11 *221:B *44:10 1.21258e-05
12 *222:A *222:C 6.28499e-05
13 *222:A *225:B1 0.00015148
14 *225:A2 *225:B1 0.00015536
15 *37:10 *44:10 9.24491e-05
16 *39:8 *44:10 0
17 *41:12 *44:10 8.00806e-05
*RES
1 *221:Y *44:10 30.2107 
2 *44:10 *225:B1 15.9964 
3 *44:10 *222:C 15.1393 
*END

*D_NET *45 0.0016289
*CONN
*I *223:B I *D sky130_fd_sc_hd__nor2_1
*I *227:B I *D sky130_fd_sc_hd__or3_1
*I *226:A I *D sky130_fd_sc_hd__nor2_1
*I *222:X O *D sky130_fd_sc_hd__and3_1
*CAP
1 *223:B 0.000295948
2 *227:B 0
3 *226:A 1.21645e-05
4 *222:X 0.000100567
5 *45:23 0.000489399
6 *45:8 0.000306182
7 *223:B *253:B 4.17433e-05
8 *223:B *46:6 2.84026e-05
9 *223:B *50:6 2.64262e-06
10 *45:8 *48:14 5.6394e-05
11 *45:23 *253:B 5.65955e-05
12 *45:23 *48:14 4.13122e-06
13 *223:A *223:B 3.48143e-05
14 *223:A *226:A 5.49544e-05
15 *253:A *223:B 2.14658e-05
16 *26:25 *226:A 5.49544e-05
17 *26:25 *45:23 6.85372e-05
*RES
1 *222:X *45:8 15.4429 
2 *45:8 *226:A 14.3357 
3 *45:8 *45:23 7.30357 
4 *45:23 *227:B 9.3 
5 *45:23 *223:B 22.3357 
*END

*D_NET *46 0.00157082
*CONN
*I *242:A1 I *D sky130_fd_sc_hd__a21o_1
*I *243:B I *D sky130_fd_sc_hd__or3_1
*I *224:B I *D sky130_fd_sc_hd__xnor2_1
*I *223:Y O *D sky130_fd_sc_hd__nor2_1
*CAP
1 *242:A1 0
2 *243:B 8.45067e-05
3 *224:B 0
4 *223:Y 0.000173545
5 *46:17 0.000260612
6 *46:6 0.000349651
7 *243:B *242:A2 6.0038e-05
8 *46:6 *50:6 0.000174109
9 *46:17 *242:A2 6.81083e-05
10 *46:17 *50:6 1.21289e-05
11 *223:B *46:6 2.84026e-05
12 *224:A *46:17 0.000197498
13 *36:19 *243:B 8.39e-05
14 *36:28 *243:B 2.82057e-05
15 *36:28 *46:17 5.01117e-05
*RES
1 *223:Y *46:6 13.5321 
2 *46:6 *224:B 9.3 
3 *46:6 *46:17 8.625 
4 *46:17 *243:B 16.3536 
5 *46:17 *242:A1 13.8 
*END

*D_NET *47 0.000890667
*CONN
*I *228:A I *D sky130_fd_sc_hd__nand2_1
*I *224:Y O *D sky130_fd_sc_hd__xnor2_1
*CAP
1 *228:A 0.000229547
2 *224:Y 0.000229547
3 *228:A *228:B 8.69644e-05
4 *228:A *230:A 3.18676e-05
5 *228:A *230:B 1.3701e-05
6 *228:A *50:10 9.71197e-05
7 *228:A *52:6 0.000144773
8 *229:A *228:A 5.71472e-05
*RES
1 *224:Y *228:A 23.4036 
*END

*D_NET *48 0.000542154
*CONN
*I *227:C I *D sky130_fd_sc_hd__or3_1
*I *226:B I *D sky130_fd_sc_hd__nor2_1
*I *225:Y O *D sky130_fd_sc_hd__a21oi_1
*CAP
1 *227:C 6.54681e-06
2 *226:B 0
3 *225:Y 0.000121303
4 *48:14 0.000127849
5 *222:A *48:14 1.60354e-05
6 *223:A *227:C 4.33899e-05
7 *223:A *48:14 5.49544e-05
8 *26:25 *227:C 5.65955e-05
9 *26:25 *48:14 5.49544e-05
10 *45:8 *48:14 5.6394e-05
11 *45:23 *48:14 4.13122e-06
*RES
1 *225:Y *48:14 20.6304 
2 *48:14 *226:B 9.3 
3 *48:14 *227:C 9.83571 
*END

*D_NET *49 0.000668938
*CONN
*I *253:B I *D sky130_fd_sc_hd__xnor2_1
*I *226:Y O *D sky130_fd_sc_hd__nor2_1
*CAP
1 *253:B 0.000126575
2 *226:Y 0.000126575
3 *223:B *253:B 4.17433e-05
4 *253:A *253:B 0.000217187
5 *26:25 *253:B 0.000100262
6 *45:23 *253:B 5.65955e-05
*RES
1 *226:Y *253:B 31.0286 
*END

*D_NET *50 0.00230541
*CONN
*I *242:A2 I *D sky130_fd_sc_hd__a21o_1
*I *228:B I *D sky130_fd_sc_hd__nand2_1
*I *229:B I *D sky130_fd_sc_hd__or2_1
*I *227:X O *D sky130_fd_sc_hd__or3_1
*CAP
1 *242:A2 9.89841e-05
2 *228:B 0.000141924
3 *229:B 0
4 *227:X 0.000450531
5 *50:10 0.000213307
6 *50:6 0.000620898
7 *223:A *50:6 5.60962e-05
8 *223:B *50:6 2.64262e-06
9 *224:A *50:6 4.88637e-05
10 *224:A *50:10 0.00014183
11 *228:A *228:B 8.69644e-05
12 *228:A *50:10 9.71197e-05
13 *229:A *228:B 3.18676e-05
14 *243:B *242:A2 6.0038e-05
15 *46:6 *50:6 0.000174109
16 *46:17 *242:A2 6.81083e-05
17 *46:17 *50:6 1.21289e-05
*RES
1 *227:X *50:6 15.5857 
2 *50:6 *50:10 2.19643 
3 *50:10 *229:B 9.3 
4 *50:10 *228:B 12.6393 
5 *50:6 *242:A2 20.4786 
*END

*D_NET *51 0.000126465
*CONN
*I *230:A I *D sky130_fd_sc_hd__and2_1
*I *228:Y O *D sky130_fd_sc_hd__nand2_1
*CAP
1 *230:A 3.85809e-05
2 *228:Y 3.85809e-05
3 *230:A *52:6 1.74352e-05
4 *228:A *230:A 3.18676e-05
*RES
1 *228:Y *230:A 19.5464 
*END

*D_NET *52 0.00178403
*CONN
*I *230:B I *D sky130_fd_sc_hd__and2_1
*I *249:A I *D sky130_fd_sc_hd__and4_1
*I *248:A1 I *D sky130_fd_sc_hd__a31oi_1
*I *229:X O *D sky130_fd_sc_hd__or2_1
*CAP
1 *230:B 7.45423e-05
2 *249:A 0
3 *248:A1 5.93879e-05
4 *229:X 0.00015681
5 *52:12 0.000429493
6 *52:6 0.000601457
7 *248:A1 *248:B1 5.52238e-05
8 *248:A1 *249:C 4.88637e-05
9 *52:12 *241:B 0
10 *52:12 *244:A 0.000150625
11 *52:12 *62:18 0
12 *52:12 *68:10 3.17148e-05
13 *228:A *230:B 1.3701e-05
14 *228:A *52:6 0.000144773
15 *230:A *52:6 1.74352e-05
16 *36:19 *52:12 0
17 *36:28 *52:12 0
*RES
1 *229:X *52:6 11.4786 
2 *52:6 *52:12 15.8036 
3 *52:12 *248:A1 10.6571 
4 *52:12 *249:A 9.3 
5 *52:6 *230:B 10.5679 
*END

*D_NET *53 0.000279635
*CONN
*I *233:B1 I *D sky130_fd_sc_hd__a31o_1
*I *231:Y O *D sky130_fd_sc_hd__a22oi_1
*CAP
1 *233:B1 7.73125e-05
2 *231:Y 7.73125e-05
3 *233:B1 *84:77 0.00012501
*RES
1 *231:Y *233:B1 29.2429 
*END

*D_NET *54 0.000278991
*CONN
*I *233:A3 I *D sky130_fd_sc_hd__a31o_1
*I *232:X O *D sky130_fd_sc_hd__or2_1
*CAP
1 *233:A3 3.72982e-05
2 *232:X 3.72982e-05
3 *233:A3 *67:10 0.000102197
4 *233:A3 *80:62 0.000102197
*RES
1 *232:X *233:A3 20.3679 
*END

*D_NET *55 0.00145297
*CONN
*I *237:A I *D sky130_fd_sc_hd__xnor2_1
*I *246:A1 I *D sky130_fd_sc_hd__o21a_1
*I *233:X O *D sky130_fd_sc_hd__a31o_1
*CAP
1 *237:A 0
2 *246:A1 5.98274e-05
3 *233:X 0.000487762
4 *55:8 0.00054759
5 *246:A1 *237:B 5.20751e-05
6 *246:A1 *67:10 1.59373e-05
7 *55:8 *232:B 5.52302e-05
8 *55:8 *59:12 1.40306e-05
9 *55:8 *67:10 3.38438e-05
10 *55:8 *80:62 0.000186669
*RES
1 *233:X *55:8 15.9071 
2 *55:8 *246:A1 10.6571 
3 *55:8 *237:A 9.3 
*END

*D_NET *56 0.00117609
*CONN
*I *235:B I *D sky130_fd_sc_hd__nand2_1
*I *236:B I *D sky130_fd_sc_hd__xnor2_1
*I *234:X O *D sky130_fd_sc_hd__and4_1
*CAP
1 *235:B 4.94643e-05
2 *236:B 0.000164001
3 *234:X 9.45787e-05
4 *56:6 0.000308043
5 *235:B *80:54 0.000142856
6 *236:B *234:D 0
7 *236:B *81:19 0
8 *56:6 *80:54 0.000318101
9 *235:A *236:B 0
10 *257:A *56:6 9.90431e-05
*RES
1 *234:X *56:6 12.3 
2 *56:6 *236:B 20.8536 
3 *56:6 *235:B 10.6571 
*END

*D_NET *57 0.000984879
*CONN
*I *246:B1 I *D sky130_fd_sc_hd__o21a_1
*I *235:Y O *D sky130_fd_sc_hd__nand2_1
*CAP
1 *246:B1 0.000307034
2 *235:Y 0.000307034
3 *246:B1 *58:6 2.84026e-05
4 *246:B1 *81:64 0.000269654
5 *246:B1 *84:10 7.2754e-05
*RES
1 *235:Y *246:B1 32.6714 
*END

*D_NET *58 0.000750026
*CONN
*I *237:B I *D sky130_fd_sc_hd__xnor2_1
*I *246:A2 I *D sky130_fd_sc_hd__o21a_1
*I *236:Y O *D sky130_fd_sc_hd__xnor2_1
*CAP
1 *237:B 5.9597e-05
2 *246:A2 0
3 *236:Y 0.000119441
4 *58:6 0.000179038
5 *237:B *67:10 0.000127797
6 *58:6 *67:10 0.000183675
7 *246:A1 *237:B 5.20751e-05
8 *246:B1 *58:6 2.84026e-05
*RES
1 *236:Y *58:6 11.8893 
2 *58:6 *246:A2 9.3 
3 *58:6 *237:B 11.0857 
*END

*D_NET *59 0.00189209
*CONN
*I *240:A I *D sky130_fd_sc_hd__or2_1
*I *239:B1 I *D sky130_fd_sc_hd__o211a_1
*I *237:Y O *D sky130_fd_sc_hd__xnor2_1
*CAP
1 *240:A 0
2 *239:B1 0.000213178
3 *237:Y 0.000383475
4 *59:12 0.000596653
5 *239:B1 *240:B 0.000137983
6 *239:B1 *85:53 2.95726e-05
7 *59:12 *231:A2 4.58192e-05
8 *59:12 *67:10 5.71472e-05
9 *59:12 *85:25 0.000103032
10 *59:12 *85:53 7.79428e-05
11 *211:B *59:12 0.000148903