*SPEF "ieee 1481-1999"
*DESIGN "SarsanStepsNada_e8_1"
*DATE "14:14:52 Tuesday September 16, 2025"
*VENDOR "The OpenROAD Project"
*PROGRAM "OpenROAD"
*VERSION "edf00dff99f6c40d67a30c0e22a8191c5d2ed9d6"
*DESIGN_FLOW "NAME_SCOPE LOCAL" "PIN_CAP NONE"
*DIVIDER /
*DELIMITER :
*BUS_DELIMITER []
*T_UNIT 1 NS
*C_UNIT 1 PF
*R_UNIT 1 OHM
*L_UNIT 1 HENRY

*NAME_MAP
*1 A[0]
*2 A[1]
*3 B[0]
*4 B[1]
*5 net5
*6 P[1]
*7 P[2]
*8 net6
*11 net1
*12 net2
*13 net3
*14 net4
*15 FILLER_0_15
*16 FILLER_0_27
*17 FILLER_0_29
*18 FILLER_0_3
*19 FILLER_0_41
*20 FILLER_0_53
*21 FILLER_0_57
*22 FILLER_0_69
*23 FILLER_1_15
*24 FILLER_1_27
*25 FILLER_1_3
*26 FILLER_1_39
*27 FILLER_1_51
*28 FILLER_1_55
*29 FILLER_1_57
*30 FILLER_1_69
*31 FILLER_2_15
*32 FILLER_2_27
*33 FILLER_2_29
*34 FILLER_2_3
*35 FILLER_2_41
*36 FILLER_2_53
*37 FILLER_2_65
*38 FILLER_2_77
*39 FILLER_3_15
*40 FILLER_3_27
*41 FILLER_3_3
*42 FILLER_3_39
*43 FILLER_3_51
*44 FILLER_3_55
*45 FILLER_3_57
*46 FILLER_3_69
*47 FILLER_4_17
*48 FILLER_4_25
*49 FILLER_4_29
*50 FILLER_4_41
*51 FILLER_4_53
*52 FILLER_4_6
*53 FILLER_4_65
*54 FILLER_4_77
*55 FILLER_5_17
*56 FILLER_5_29
*57 FILLER_5_41
*58 FILLER_5_53
*59 FILLER_5_57
*60 FILLER_5_6
*61 FILLER_5_69
*62 FILLER_6_19
*63 FILLER_6_27
*64 FILLER_6_29
*65 FILLER_6_41
*66 FILLER_6_53
*67 FILLER_6_65
*68 FILLER_6_7
*69 FILLER_6_77
*70 FILLER_7_15
*71 FILLER_7_27
*72 FILLER_7_3
*73 FILLER_7_39
*74 FILLER_7_51
*75 FILLER_7_55
*76 FILLER_7_57
*77 FILLER_7_69
*78 FILLER_8_15
*79 FILLER_8_27
*80 FILLER_8_29
*81 FILLER_8_3
*82 FILLER_8_41
*83 FILLER_8_53
*84 FILLER_8_65
*85 FILLER_8_77
*86 FILLER_9_15
*87 FILLER_9_27
*88 FILLER_9_29
*89 FILLER_9_3
*90 FILLER_9_41
*91 FILLER_9_53
*92 FILLER_9_57
*93 FILLER_9_69
*94 PHY_EDGE_ROW_0_Left_10
*95 PHY_EDGE_ROW_0_Right_0
*96 PHY_EDGE_ROW_1_Left_11
*97 PHY_EDGE_ROW_1_Right_1
*98 PHY_EDGE_ROW_2_Left_12
*99 PHY_EDGE_ROW_2_Right_2
*100 PHY_EDGE_ROW_3_Left_13
*101 PHY_EDGE_ROW_3_Right_3
*102 PHY_EDGE_ROW_4_Left_14
*103 PHY_EDGE_ROW_4_Right_4
*104 PHY_EDGE_ROW_5_Left_15
*105 PHY_EDGE_ROW_5_Right_5
*106 PHY_EDGE_ROW_6_Left_16
*107 PHY_EDGE_ROW_6_Right_6
*108 PHY_EDGE_ROW_7_Left_17
*109 PHY_EDGE_ROW_7_Right_7
*110 PHY_EDGE_ROW_8_Left_18
*111 PHY_EDGE_ROW_8_Right_8
*112 PHY_EDGE_ROW_9_Left_19
*113 PHY_EDGE_ROW_9_Right_9
*114 SarsanStepsNada_e8_1_5
*115 SarsanStepsNada_e8_1_6
*116 TAP_TAPCELL_ROW_0_20
*117 TAP_TAPCELL_ROW_0_21
*118 TAP_TAPCELL_ROW_1_22
*119 TAP_TAPCELL_ROW_2_23
*120 TAP_TAPCELL_ROW_3_24
*121 TAP_TAPCELL_ROW_4_25
*122 TAP_TAPCELL_ROW_5_26
*123 TAP_TAPCELL_ROW_6_27
*124 TAP_TAPCELL_ROW_7_28
*125 TAP_TAPCELL_ROW_8_29
*126 TAP_TAPCELL_ROW_9_30
*127 TAP_TAPCELL_ROW_9_31
*128 _0_
*129 _1_
*130 input1
*131 input2
*132 output3
*133 output4

*PORTS
A[0] I
A[1] I
B[0] I
B[1] I
P[0] O
P[1] O
P[2] O
P[3] O

*D_NET *2 0.000733319
*CONN
*P A[1] I
*I *130:A I *D sky130_fd_sc_hd__clkbuf_1
*CAP
1 A[1] 0.000352215
2 *130:A 0
3 *2:17 0.000352215
4 *2:17 *4:17 2.88889e-05
*RES
1 A[1] *2:17 28.2148 
2 *2:17 *130:A 23 
*END

*D_NET *4 0.00071699
*CONN
*P B[1] I
*I *131:A I *D sky130_fd_sc_hd__clkbuf_1
*CAP
1 B[1] 0.000330094
2 *131:A 0
3 *4:17 0.000330094
4 *4:17 P[1] 2.79122e-05
5 *2:17 *4:17 2.88889e-05
*RES
1 B[1] *4:17 27.8627 
2 *4:17 *131:A 23 
*END

*D_NET *5 0.000690187
*CONN
*P P[0] O
*I *114:LO O *D sky130_fd_sc_hd__conb_1
*CAP
1 P[0] 0.000305972
2 *114:LO 0.000305972
3 P[0] P[2] 7.82427e-05
*RES
1 *114:LO P[0] 49.1918 
*END

*D_NET *6 0.00055641
*CONN
*P P[1] O
*I *132:X O *D sky130_fd_sc_hd__buf_2
*CAP
1 P[1] 0.000259316
2 *132:X 0.000259316
3 P[1] *13:10 9.86551e-06
4 *4:17 P[1] 2.79122e-05
*RES
1 *132:X P[1] 47.1648 
*END

*D_NET *7 0.000632761
*CONN
*P P[2] O
*I *133:X O *D sky130_fd_sc_hd__buf_2
*CAP
1 P[2] 0.000219332
2 *133:X 0.000219332
3 P[2] P[3] 8.06147e-05
4 P[2] *14:10 3.52397e-05
5 P[0] P[2] 7.82427e-05
*RES
1 *133:X P[2] 47.8691 
*END

*D_NET *8 0.00052467
*CONN
*P P[3] O
*I *115:LO O *D sky130_fd_sc_hd__conb_1
*CAP
1 P[3] 0.000222028
2 *115:LO 0.000222028
3 P[2] P[3] 8.06147e-05
*RES
1 *115:LO P[3] 47.7832 
*END

*D_NET *11 0.00111954
*CONN
*I *128:B I *D sky130_fd_sc_hd__or2_1
*I *129:B I *D sky130_fd_sc_hd__and2_1
*I *130:X O *D sky130_fd_sc_hd__clkbuf_1
*CAP
1 *128:B 0
2 *129:B 0
3 *130:X 0.00030049
4 *11:21 0.000257425
5 *11:8 0.000557915
6 *11:21 *12:16 0
7 *11:21 *14:10 3.7122e-06
*RES
1 *130:X *11:8 28.2821 
2 *11:8 *129:B 23 
3 *11:8 *11:21 34.4121 
4 *11:21 *128:B 23 
*END

*D_NET *12 0.00107208
*CONN
*I *128:A I *D sky130_fd_sc_hd__or2_1
*I *129:A I *D sky130_fd_sc_hd__and2_1
*I *131:X O *D sky130_fd_sc_hd__clkbuf_1
*CAP
1 *128:A 5.87153e-05
2 *129:A 0
3 *131:X 0.000144617
4 *12:16 0.000189055
5 *12:8 0.000392387
6 *128:A *13:10 1.32314e-05
7 *12:8 *13:10 0.000274078
8 *11:21 *12:16 0
*RES
1 *131:X *12:8 26.9771 
2 *12:8 *12:16 33.4593 
3 *12:16 *129:A 23 
4 *12:8 *128:A 24.0979 
*END

*D_NET *13 0.000874718
*CONN
*I *132:A I *D sky130_fd_sc_hd__buf_2
*I *128:X O *D sky130_fd_sc_hd__or2_1
*CAP
1 *132:A 0
2 *128:X 0.000288772
3 *13:10 0.000288772
4 P[1] *13:10 9.86551e-06
5 *128:A *13:10 1.32314e-05
6 *12:8 *13:10 0.000274078
*RES
1 *128:X *13:10 42.9093 
2 *13:10 *132:A 38 
*END

*D_NET *14 0.00467188
*CONN
*I *133:A I *D sky130_fd_sc_hd__buf_2
*I *129:X O *D sky130_fd_sc_hd__and2_1
*CAP
1 *133:A 0
2 *129:X 0
3 *14:10 0.00231646
4 *14:4 0.00231646
5 P[2] *14:10 3.52397e-05
6 *11:21 *14:10 3.7122e-06
*RES
1 *129:X *14:4 23 
2 *14:4 *14:10 46.465 
3 *14:10 *133:A 38 
*END
