*SPEF "ieee 1481-1999"
*DESIGN "Sarsa_Ruido_e9_1"
*DATE "11:49:53 Friday September 12, 2025"
*VENDOR "The OpenROAD Project"
*PROGRAM "OpenROAD"
*VERSION "edf00dff99f6c40d67a30c0e22a8191c5d2ed9d6"
*DESIGN_FLOW "NAME_SCOPE LOCAL" "PIN_CAP NONE"
*DIVIDER /
*DELIMITER :
*BUS_DELIMITER []
*T_UNIT 1 NS
*C_UNIT 1 PF
*R_UNIT 1 OHM
*L_UNIT 1 HENRY

*NAME_MAP
*1 A[0]
*2 A[1]
*3 B[0]
*4 B[1]
*5 P[0]
*6 P[1]
*7 P[2]
*8 P[3]
*11 _00_
*12 _01_
*13 _02_
*14 _03_
*15 _04_
*16 _05_
*17 _06_
*18 _07_
*19 _08_
*20 net1
*21 net2
*22 net3
*23 net4
*24 net5
*25 net6
*26 net7
*27 net8
*28 FILLER_0_15
*29 FILLER_0_27
*30 FILLER_0_29
*31 FILLER_0_3
*32 FILLER_0_41
*33 FILLER_0_53
*34 FILLER_0_57
*35 FILLER_0_69
*36 FILLER_1_15
*37 FILLER_1_27
*38 FILLER_1_3
*39 FILLER_1_39
*40 FILLER_1_51
*41 FILLER_1_55
*42 FILLER_1_57
*43 FILLER_1_69
*44 FILLER_2_13
*45 FILLER_2_25
*46 FILLER_2_29
*47 FILLER_2_41
*48 FILLER_2_53
*49 FILLER_2_65
*50 FILLER_2_77
*51 FILLER_3_15
*52 FILLER_3_3
*53 FILLER_3_31
*54 FILLER_3_43
*55 FILLER_3_55
*56 FILLER_3_57
*57 FILLER_3_69
*58 FILLER_4_18
*59 FILLER_4_26
*60 FILLER_4_44
*61 FILLER_4_56
*62 FILLER_4_6
*63 FILLER_4_63
*64 FILLER_4_75
*65 FILLER_5_18
*66 FILLER_5_30
*67 FILLER_5_42
*68 FILLER_5_54
*69 FILLER_5_57
*70 FILLER_5_6
*71 FILLER_5_65
*72 FILLER_5_77
*73 FILLER_6_10
*74 FILLER_6_18
*75 FILLER_6_26
*76 FILLER_6_29
*77 FILLER_6_41
*78 FILLER_6_49
*79 FILLER_6_56
*80 FILLER_6_6
*81 FILLER_6_68
*82 FILLER_6_76
*83 FILLER_7_21
*84 FILLER_7_33
*85 FILLER_7_45
*86 FILLER_7_53
*87 FILLER_7_57
*88 FILLER_7_69
*89 FILLER_7_7
*90 FILLER_8_15
*91 FILLER_8_27
*92 FILLER_8_3
*93 FILLER_8_42
*94 FILLER_8_54
*95 FILLER_8_66
*96 FILLER_8_78
*97 FILLER_9_15
*98 FILLER_9_27
*99 FILLER_9_29
*100 FILLER_9_3
*101 FILLER_9_41
*102 FILLER_9_49
*103 FILLER_9_55
*104 FILLER_9_57
*105 FILLER_9_69
*106 PHY_EDGE_ROW_0_Left_10
*107 PHY_EDGE_ROW_0_Right_0
*108 PHY_EDGE_ROW_1_Left_11
*109 PHY_EDGE_ROW_1_Right_1
*110 PHY_EDGE_ROW_2_Left_12
*111 PHY_EDGE_ROW_2_Right_2
*112 PHY_EDGE_ROW_3_Left_13
*113 PHY_EDGE_ROW_3_Right_3
*114 PHY_EDGE_ROW_4_Left_14
*115 PHY_EDGE_ROW_4_Right_4
*116 PHY_EDGE_ROW_5_Left_15
*117 PHY_EDGE_ROW_5_Right_5
*118 PHY_EDGE_ROW_6_Left_16
*119 PHY_EDGE_ROW_6_Right_6
*120 PHY_EDGE_ROW_7_Left_17
*121 PHY_EDGE_ROW_7_Right_7
*122 PHY_EDGE_ROW_8_Left_18
*123 PHY_EDGE_ROW_8_Right_8
*124 PHY_EDGE_ROW_9_Left_19
*125 PHY_EDGE_ROW_9_Right_9
*126 TAP_TAPCELL_ROW_0_20
*127 TAP_TAPCELL_ROW_0_21
*128 TAP_TAPCELL_ROW_1_22
*129 TAP_TAPCELL_ROW_2_23
*130 TAP_TAPCELL_ROW_3_24
*131 TAP_TAPCELL_ROW_4_25
*132 TAP_TAPCELL_ROW_5_26
*133 TAP_TAPCELL_ROW_6_27
*134 TAP_TAPCELL_ROW_7_28
*135 TAP_TAPCELL_ROW_8_29
*136 TAP_TAPCELL_ROW_9_30
*137 TAP_TAPCELL_ROW_9_31
*138 _09_
*139 _10_
*140 _11_
*141 _12_
*142 _13_
*143 _14_
*144 _15_
*145 _16_
*146 _17_
*147 _18_
*148 _19_
*149 _20_
*150 _21_
*151 input1
*152 input2
*153 input3
*154 input4
*155 output5
*156 output6
*157 output7
*158 output8

*PORTS
A[0] I
A[1] I
B[0] I
B[1] I
P[0] O
P[1] O
P[2] O
P[3] O

*D_NET *1 0.000670164
*CONN
*P A[0] I
*I *151:A I *D sky130_fd_sc_hd__buf_1
*CAP
1 A[0] 0.000305702
2 *151:A 0.000305702
3 *151:A *153:A 2.87684e-05
4 *151:A *154:A 2.99915e-05
*RES
1 A[0] *151:A 21.391 
*END

*D_NET *2 0.000580475
*CONN
*P A[1] I
*I *152:A I *D sky130_fd_sc_hd__dlymetal6s2s_1
*CAP
1 A[1] 0.000276648
2 *152:A 0.000276648
3 *152:A *154:A 2.71788e-05
*RES
1 A[1] *152:A 20.4803 
*END

*D_NET *3 0.000534185
*CONN
*P B[0] I
*I *153:A I *D sky130_fd_sc_hd__buf_1
*CAP
1 B[0] 0.000236739
2 *153:A 0.000236739
3 *153:A P[3] 3.19385e-05
4 *153:A *144:A 0
5 *151:A *153:A 2.87684e-05
*RES
1 B[0] *153:A 18.73 
*END

*D_NET *4 0.000699525
*CONN
*P B[1] I
*I *154:A I *D sky130_fd_sc_hd__buf_1
*CAP
1 B[1] 0.000321177
2 *154:A 0.000321177
3 *151:A *154:A 2.99915e-05
4 *152:A *154:A 2.71788e-05
*RES
1 B[1] *154:A 21.6946 
*END

*D_NET *5 0.000621314
*CONN
*P P[0] O
*I *155:X O *D sky130_fd_sc_hd__buf_2
*CAP
1 P[0] 0.000310657
2 *155:X 0.000310657
3 P[0] P[1] 0
*RES
1 *155:X P[0] 19.4092 
*END

*D_NET *6 0.000486179
*CONN
*P P[1] O
*I *156:X O *D sky130_fd_sc_hd__buf_2
*CAP
1 P[1] 0.000236992
2 *156:X 0.000236992
3 P[1] *156:A 1.21955e-05
4 P[0] P[1] 0
*RES
1 *156:X P[1] 18.1949 
*END

*D_NET *7 0.000951893
*CONN
*P P[2] O
*I *157:X O *D sky130_fd_sc_hd__buf_2
*CAP
1 P[2] 0.000475946
2 *157:X 0.000475946
*RES
1 *157:X P[2] 23.2643 
*END

*D_NET *8 0.00072306
*CONN
*P P[3] O
*I *158:X O *D sky130_fd_sc_hd__buf_2
*CAP
1 P[3] 0.000345561
2 *158:X 0.000345561
3 *153:A P[3] 3.19385e-05
*RES
1 *158:X P[3] 20.891 
*END

*D_NET *11 0.00197785
*CONN
*I *142:A I *D sky130_fd_sc_hd__and3_1
*I *139:X O *D sky130_fd_sc_hd__a2bb2o_1
*CAP
1 *142:A 0.00087143
2 *139:X 0.00087143
3 *142:A *142:C 4.1331e-06
4 *142:A *21:73 0.000230854
*RES
1 *139:X *142:A 41.7786 
*END

*D_NET *12 0.00153414
*CONN
*I *142:B I *D sky130_fd_sc_hd__and3_1
*I *147:A I *D sky130_fd_sc_hd__and3_1
*I *140:X O *D sky130_fd_sc_hd__or4_1
*CAP
1 *142:B 0
2 *147:A 0.000114287
3 *140:X 0.00061446
4 *12:6 0.000728747
5 *147:A *142:C 7.6644e-05
*RES
1 *140:X *12:6 16.4071 
2 *12:6 *147:A 20.55 
3 *12:6 *142:B 9.3 
*END

*D_NET *13 0.00333014
*CONN
*I *149:A1 I *D sky130_fd_sc_hd__a21oi_1
*I *147:B I *D sky130_fd_sc_hd__and3_1
*I *142:C I *D sky130_fd_sc_hd__and3_1
*I *141:X O *D sky130_fd_sc_hd__or4bb_1
*CAP
1 *149:A1 0.000428675
2 *147:B 3.98632e-05
3 *142:C 0.000155203
4 *141:X 0.000118486
5 *13:16 0.000981416
6 *13:12 0.00133351
7 *147:B *147:C 5.39629e-06
8 *13:12 *140:B 5.68722e-05
9 *13:12 *140:C 0.000100685
10 *13:16 *147:C 2.92541e-05
11 *142:A *142:C 4.1331e-06
12 *147:A *142:C 7.6644e-05
*RES
1 *141:X *13:12 16.2107 
2 *13:12 *13:16 13.6607 
3 *13:16 *142:C 20.9429 
4 *13:16 *147:B 9.83571 
5 *13:12 *149:A1 21.2107 
*END

*D_NET *14 0.000436857
*CONN
*I *148:S I *D sky130_fd_sc_hd__mux2_1
*I *143:Y O *D sky130_fd_sc_hd__nand2_1
*CAP
1 *148:S 0.000179541
2 *143:Y 0.000179541
3 *148:S *148:A0 7.77751e-05
4 *148:S *148:A1 0
*RES
1 *143:Y *148:S 30.9036 
*END

*D_NET *15 0.00369037
*CONN
*I *146:A_N I *D sky130_fd_sc_hd__and2b_1
*I *149:B1 I *D sky130_fd_sc_hd__a21oi_1
*I *150:B1 I *D sky130_fd_sc_hd__a31o_1
*I *144:X O *D sky130_fd_sc_hd__and4_1
*CAP
1 *146:A_N 0
2 *149:B1 0.000520709
3 *150:B1 0.00012083
4 *144:X 0
5 *15:19 0.00109756
6 *15:4 0.000697684
7 *150:B1 *150:A2 1.31516e-05
8 *150:B1 *22:17 3.18676e-05
9 *150:B1 *23:21 0.000150611
10 *15:19 *146:B 0.000792173
11 *15:19 *22:17 0.000265784
*RES
1 *144:X *15:4 9.3 
2 *15:4 *150:B1 21.0857 
3 *15:4 *15:19 13.6786 
4 *15:19 *149:B1 26.4964 
5 *15:19 *146:A_N 9.3 
*END

*D_NET *16 0.00210402
*CONN
*I *148:A1 I *D sky130_fd_sc_hd__mux2_1
*I *146:B I *D sky130_fd_sc_hd__and2b_1
*I *145:Y O *D sky130_fd_sc_hd__nand2b_1
*CAP
1 *148:A1 0.000124888
2 *146:B 0.000531036
3 *145:Y 0
4 *16:6 0.000655924
5 *146:B *22:58 0
6 *148:A1 *22:58 0
7 *148:S *148:A1 0
8 *15:19 *146:B 0.000792173
*RES
1 *145:Y *16:6 13.8 
2 *16:6 *146:B 24.1929 
3 *16:6 *148:A1 16.05 
*END

*D_NET *17 0.000695197
*CONN
*I *147:C I *D sky130_fd_sc_hd__and3_1
*I *146:X O *D sky130_fd_sc_hd__and2b_1
*CAP
1 *147:C 0.000330273
2 *146:X 0.000330273
3 *147:B *147:C 5.39629e-06
4 *13:16 *147:C 2.92541e-05
*RES
1 *146:X *147:C 31.7071 
*END

*D_NET *18 0.000168126
*CONN
*I *149:A2 I *D sky130_fd_sc_hd__a21oi_1
*I *148:X O *D sky130_fd_sc_hd__mux2_1
*CAP
1 *149:A2 8.40631e-05
2 *148:X 8.40631e-05
*RES
1 *148:X *149:A2 19.8679 
*END

*D_NET *19 0.00138429
*CONN
*I *148:A0 I *D sky130_fd_sc_hd__mux2_1
*I *150:A1 I *D sky130_fd_sc_hd__a31o_1
*I *138:Y O *D sky130_fd_sc_hd__inv_2
*CAP
1 *148:A0 0.000461952
2 *150:A1 0.000137116
3 *138:Y 0
4 *19:4 0.000599068
5 *150:A1 *138:A 6.11433e-05
6 *150:A1 *143:B 4.35452e-05
7 *150:A1 *150:A3 3.69047e-06
8 *150:A1 *158:A 0
9 *148:S *148:A0 7.77751e-05
*RES
1 *138:Y *19:4 9.3 
2 *19:4 *150:A1 11.925 
3 *19:4 *148:A0 25.5143 
*END

*D_NET *20 0.00377603
*CONN
*I *144:A I *D sky130_fd_sc_hd__and4_1
*I *141:C_N I *D sky130_fd_sc_hd__or4bb_1
*I *140:A I *D sky130_fd_sc_hd__or4_1
*I *139:B1 I *D sky130_fd_sc_hd__a2bb2o_1
*I *151:X O *D sky130_fd_sc_hd__buf_1
*CAP
1 *144:A 7.37388e-05
2 *141:C_N 0
3 *140:A 0.000174783
4 *139:B1 0
5 *151:X 0.000225825
6 *20:27 0.000444099
7 *20:14 0.000750109
8 *20:8 0.000780357
9 *140:A *140:B 9.93048e-05
10 *140:A *140:C 0.000142434
11 *140:A *140:D 0.000323026
12 *140:A *141:D_N 1.04232e-05
13 *140:A *22:36 2.89114e-05
14 *144:A *21:16 2.34204e-05
15 *144:A *21:25 9.11365e-06
16 *20:14 *21:12 7.77652e-05
17 *20:14 *21:16 0.000154455
18 *20:14 *21:62 0.000224366
19 *20:27 *139:A2_N 3.34672e-05
20 *20:27 *141:A 0
21 *20:27 *21:62 0.000122159
22 *20:27 *21:73 5.62995e-05
23 *20:27 *23:45 2.19778e-05
24 *153:A *144:A 0
*RES
1 *151:X *20:8 16.3893 
2 *20:8 *20:14 14.8393 
3 *20:14 *139:B1 9.3 
4 *20:14 *20:27 13.9464 
5 *20:27 *140:A 14.925 
6 *20:27 *141:C_N 9.3 
7 *20:8 *144:A 15.1393 
*END

*D_NET *21 0.00594555
*CONN
*I *140:C I *D sky130_fd_sc_hd__or4_1
*I *141:A I *D sky130_fd_sc_hd__or4bb_1
*I *139:A1_N I *D sky130_fd_sc_hd__a2bb2o_1
*I *150:A2 I *D sky130_fd_sc_hd__a31o_1
*I *145:B I *D sky130_fd_sc_hd__nand2b_1
*I *143:A I *D sky130_fd_sc_hd__nand2_1
*I *144:C I *D sky130_fd_sc_hd__and4_1
*I *152:X O *D sky130_fd_sc_hd__dlymetal6s2s_1
*CAP
1 *140:C 0.000114629
2 *141:A 5.07314e-06
3 *139:A1_N 0
4 *150:A2 4.69003e-05
5 *145:B 7.95592e-05
6 *143:A 1.00903e-05
7 *144:C 0
8 *152:X 0.000314824
9 *21:73 0.000383283
10 *21:62 0.000498129
11 *21:31 0.00046659
12 *21:25 0.000527191
13 *21:16 0.000360014
14 *21:12 0.000806037
15 *140:C *140:B 2.12087e-05
16 *140:C *23:45 0
17 *143:A *138:A 6.29133e-05
18 *143:A *143:B 2.53134e-05
19 *145:B *138:A 3.1889e-05
20 *150:A2 *23:21 3.17148e-05
21 *21:16 *139:B2 0
22 *21:16 *23:10 0.000272665
23 *21:25 *23:10 1.02504e-05
24 *21:25 *23:21 0.000190155
25 *21:31 *138:A 9.22103e-06
26 *21:31 *143:B 0.000469897
27 *21:31 *150:A3 5.33005e-05
28 *21:73 *139:A2_N 0
29 *140:A *140:C 0.000142434
30 *142:A *21:73 0.000230854
31 *144:A *21:16 2.34204e-05
32 *144:A *21:25 9.11365e-06
33 *150:B1 *150:A2 1.31516e-05
34 *13:12 *140:C 0.000100685
35 *20:14 *21:12 7.77652e-05
36 *20:14 *21:16 0.000154455
37 *20:14 *21:62 0.000224366
38 *20:27 *141:A 0
39 *20:27 *21:62 0.000122159
40 *20:27 *21:73 5.62995e-05
*RES
1 *152:X *21:12 23.9607 
2 *21:12 *21:16 11.3036 
3 *21:16 *144:C 13.8 
4 *21:16 *21:25 2.55357 
5 *21:25 *21:31 10.2857 
6 *21:31 *143:A 10.2643 
7 *21:31 *145:B 11.2152 
8 *21:25 *150:A2 14.5321 
9 *21:12 *21:62 5.875 
10 *21:62 *139:A1_N 9.3 
11 *21:62 *21:73 9.90179 
12 *21:73 *141:A 14.0768 
13 *21:73 *140:C 16.2732 
*END

*D_NET *22 0.00472882
*CONN
*I *138:A I *D sky130_fd_sc_hd__inv_2
*I *145:A_N I *D sky130_fd_sc_hd__nand2b_1
*I *140:B I *D sky130_fd_sc_hd__or4_1
*I *141:D_N I *D sky130_fd_sc_hd__or4bb_1
*I *139:B2 I *D sky130_fd_sc_hd__a2bb2o_1
*I *144:B I *D sky130_fd_sc_hd__and4_1
*I *153:X O *D sky130_fd_sc_hd__buf_1
*CAP
1 *138:A 0.000207841
2 *145:A_N 0
3 *140:B 0.000176746
4 *141:D_N 1.99857e-05
5 *139:B2 0.000190721
6 *144:B 0
7 *153:X 0.000318361
8 *22:58 0.000416912
9 *22:36 0.000229572
10 *22:21 0.000465146
11 *22:17 0.000783673
12 *22:8 0.000651377
13 *138:A *143:B 0.000161465
14 *139:B2 *139:A2_N 4.48206e-05
15 *139:B2 *140:D 1.92905e-05
16 *139:B2 *141:B 1.98839e-05
17 *139:B2 *23:41 7.48091e-05
18 *139:B2 *23:45 2.78729e-05
19 *140:B *141:B 7.86956e-05
20 *22:21 *23:45 5.66157e-05
21 *22:36 *140:D 2.77173e-05
22 *22:36 *141:B 7.77751e-05
23 *140:A *140:B 9.93048e-05
24 *140:A *141:D_N 1.04232e-05
25 *140:A *22:36 2.89114e-05
26 *140:C *140:B 2.12087e-05
27 *143:A *138:A 6.29133e-05
28 *145:B *138:A 3.1889e-05
29 *146:B *22:58 0
30 *148:A1 *22:58 0
31 *150:A1 *138:A 6.11433e-05
32 *150:B1 *22:17 3.18676e-05
33 *13:12 *140:B 5.68722e-05
34 *15:19 *22:17 0.000265784
35 *21:16 *139:B2 0
36 *21:31 *138:A 9.22103e-06
*RES
1 *153:X *22:8 13.1393 
2 *22:8 *144:B 9.3 
3 *22:8 *22:17 10.7857 
4 *22:17 *22:21 8.875 
5 *22:21 *139:B2 22.6214 
6 *22:21 *22:36 1.35714 
7 *22:36 *141:D_N 9.72857 
8 *22:36 *140:B 13.1571 
9 *22:17 *22:58 7.66071 
10 *22:58 *145:A_N 9.3 
11 *22:58 *138:A 14.5143 
*END

*D_NET *23 0.00599878
*CONN
*I *141:B I *D sky130_fd_sc_hd__or4bb_1
*I *140:D I *D sky130_fd_sc_hd__or4_1
*I *139:A2_N I *D sky130_fd_sc_hd__a2bb2o_1
*I *143:B I *D sky130_fd_sc_hd__nand2_1
*I *150:A3 I *D sky130_fd_sc_hd__a31o_1
*I *144:D I *D sky130_fd_sc_hd__and4_1
*I *154:X O *D sky130_fd_sc_hd__buf_1
*CAP
1 *141:B 0.000220183
2 *140:D 0.000353937
3 *139:A2_N 6.66385e-05
4 *143:B 0.000103104
5 *150:A3 7.72261e-05
6 *144:D 0
7 *154:X 0.000377779
8 *23:45 0.000475251
9 *23:41 0.000691352
10 *23:21 0.000261679
11 *23:10 0.000217192
12 *23:6 0.000930116
13 *150:A3 *158:A 5.7661e-06
14 *138:A *143:B 0.000161465
15 *139:B2 *139:A2_N 4.48206e-05
16 *139:B2 *140:D 1.92905e-05
17 *139:B2 *141:B 1.98839e-05
18 *139:B2 *23:41 7.48091e-05
19 *139:B2 *23:45 2.78729e-05
20 *140:A *140:D 0.000323026
21 *140:B *141:B 7.86956e-05
22 *140:C *23:45 0
23 *143:A *143:B 2.53134e-05
24 *150:A1 *143:B 4.35452e-05
25 *150:A1 *150:A3 3.69047e-06
26 *150:A2 *23:21 3.17148e-05
27 *150:B1 *23:21 0.000150611
28 *20:27 *139:A2_N 3.34672e-05
29 *20:27 *23:45 2.19778e-05
30 *21:16 *23:10 0.000272665
31 *21:25 *23:10 1.02504e-05
32 *21:25 *23:21 0.000190155
33 *21:31 *143:B 0.000469897
34 *21:31 *150:A3 5.33005e-05
35 *21:73 *139:A2_N 0
36 *22:21 *23:45 5.66157e-05
37 *22:36 *140:D 2.77173e-05
38 *22:36 *141:B 7.77751e-05
*RES
1 *154:X *23:6 13.5321 
2 *23:6 *23:10 7.96429 
3 *23:10 *144:D 13.8 
4 *23:10 *23:21 7.35714 
5 *23:21 *150:A3 10.675 
6 *23:21 *143:B 14.2643 
7 *23:6 *23:41 5.05357 
8 *23:41 *23:45 6.14286 
9 *23:45 *139:A2_N 15.4429 
10 *23:45 *140:D 18.8714 
11 *23:41 *141:B 12.3 
*END

*D_NET *24 0.000824564
*CONN
*I *155:A I *D sky130_fd_sc_hd__buf_2
*I *142:X O *D sky130_fd_sc_hd__and3_1
*CAP
1 *155:A 0.000412282
2 *142:X 0.000412282
*RES
1 *142:X *155:A 25.6179 
*END

*D_NET *25 0.00113508
*CONN
*I *156:A I *D sky130_fd_sc_hd__buf_2
*I *147:X O *D sky130_fd_sc_hd__and3_1
*CAP
1 *156:A 0.000561442
2 *147:X 0.000561442
3 P[1] *156:A 1.21955e-05
*RES
1 *147:X *156:A 34.7071 
*END

*D_NET *26 0.000452186
*CONN
*I *157:A I *D sky130_fd_sc_hd__buf_2
*I *149:Y O *D sky130_fd_sc_hd__a21oi_1
*CAP
1 *157:A 0.000226093
2 *149:Y 0.000226093
*RES
1 *149:Y *157:A 31.3143 
*END

*D_NET *27 0.000305732
*CONN
*I *158:A I *D sky130_fd_sc_hd__buf_2
*I *150:X O *D sky130_fd_sc_hd__a31o_1
*CAP
1 *158:A 0.000149983
2 *150:X 0.000149983
3 *150:A1 *158:A 0
4 *150:A3 *158:A 5.7661e-06
*RES
1 *150:X *158:A 21.2071 
*END
