*SPEF "ieee 1481-1999"
*DESIGN "SARSANPASOS_VENTAJA_RUIDO_e8"
*DATE "13:51:30 Tuesday September 16, 2025"
*VENDOR "The OpenROAD Project"
*PROGRAM "OpenROAD"
*VERSION "edf00dff99f6c40d67a30c0e22a8191c5d2ed9d6"
*DESIGN_FLOW "NAME_SCOPE LOCAL" "PIN_CAP NONE"
*DIVIDER /
*DELIMITER :
*BUS_DELIMITER []
*T_UNIT 1 NS
*C_UNIT 1 PF
*R_UNIT 1 OHM
*L_UNIT 1 HENRY

*NAME_MAP
*1 A[0]
*2 A[1]
*3 B[0]
*4 B[1]
*5 P[0]
*6 P[1]
*7 P[2]
*8 net7
*11 net1
*12 net2
*13 net3
*14 net4
*15 net5
*16 net6
*17 pp1
*18 pp2
*19 FILLER_0_15
*20 FILLER_0_27
*21 FILLER_0_29
*22 FILLER_0_3
*23 FILLER_0_41
*24 FILLER_0_53
*25 FILLER_0_57
*26 FILLER_0_69
*27 FILLER_1_15
*28 FILLER_1_27
*29 FILLER_1_3
*30 FILLER_1_39
*31 FILLER_1_51
*32 FILLER_1_55
*33 FILLER_1_57
*34 FILLER_1_69
*35 FILLER_2_15
*36 FILLER_2_27
*37 FILLER_2_29
*38 FILLER_2_3
*39 FILLER_2_41
*40 FILLER_2_53
*41 FILLER_2_65
*42 FILLER_2_77
*43 FILLER_3_15
*44 FILLER_3_27
*45 FILLER_3_3
*46 FILLER_3_39
*47 FILLER_3_51
*48 FILLER_3_55
*49 FILLER_3_57
*50 FILLER_3_69
*51 FILLER_4_18
*52 FILLER_4_26
*53 FILLER_4_29
*54 FILLER_4_37
*55 FILLER_4_43
*56 FILLER_4_55
*57 FILLER_4_6
*58 FILLER_4_67
*59 FILLER_4_75
*60 FILLER_5_11
*61 FILLER_5_17
*62 FILLER_5_29
*63 FILLER_5_3
*64 FILLER_5_41
*65 FILLER_5_53
*66 FILLER_5_57
*67 FILLER_5_69
*68 FILLER_6_18
*69 FILLER_6_23
*70 FILLER_6_27
*71 FILLER_6_29
*72 FILLER_6_41
*73 FILLER_6_53
*74 FILLER_6_6
*75 FILLER_6_65
*76 FILLER_7_17
*77 FILLER_7_23
*78 FILLER_7_35
*79 FILLER_7_47
*80 FILLER_7_55
*81 FILLER_7_57
*82 FILLER_7_6
*83 FILLER_7_69
*84 FILLER_8_15
*85 FILLER_8_27
*86 FILLER_8_29
*87 FILLER_8_3
*88 FILLER_8_41
*89 FILLER_8_53
*90 FILLER_8_65
*91 FILLER_8_77
*92 FILLER_9_15
*93 FILLER_9_27
*94 FILLER_9_29
*95 FILLER_9_3
*96 FILLER_9_41
*97 FILLER_9_53
*98 FILLER_9_57
*99 FILLER_9_69
*100 PHY_EDGE_ROW_0_Left_10
*101 PHY_EDGE_ROW_0_Right_0
*102 PHY_EDGE_ROW_1_Left_11
*103 PHY_EDGE_ROW_1_Right_1
*104 PHY_EDGE_ROW_2_Left_12
*105 PHY_EDGE_ROW_2_Right_2
*106 PHY_EDGE_ROW_3_Left_13
*107 PHY_EDGE_ROW_3_Right_3
*108 PHY_EDGE_ROW_4_Left_14
*109 PHY_EDGE_ROW_4_Right_4
*110 PHY_EDGE_ROW_5_Left_15
*111 PHY_EDGE_ROW_5_Right_5
*112 PHY_EDGE_ROW_6_Left_16
*113 PHY_EDGE_ROW_6_Right_6
*114 PHY_EDGE_ROW_7_Left_17
*115 PHY_EDGE_ROW_7_Right_7
*116 PHY_EDGE_ROW_8_Left_18
*117 PHY_EDGE_ROW_8_Right_8
*118 PHY_EDGE_ROW_9_Left_19
*119 PHY_EDGE_ROW_9_Right_9
*120 SARSANPASOS_VENTAJA_RUIDO_e8_7
*121 TAP_TAPCELL_ROW_0_20
*122 TAP_TAPCELL_ROW_0_21
*123 TAP_TAPCELL_ROW_1_22
*124 TAP_TAPCELL_ROW_2_23
*125 TAP_TAPCELL_ROW_3_24
*126 TAP_TAPCELL_ROW_4_25
*127 TAP_TAPCELL_ROW_5_26
*128 TAP_TAPCELL_ROW_6_27
*129 TAP_TAPCELL_ROW_7_28
*130 TAP_TAPCELL_ROW_8_29
*131 TAP_TAPCELL_ROW_9_30
*132 TAP_TAPCELL_ROW_9_31
*133 _0_
*134 _1_
*135 _3_
*136 _4_
*137 _5_
*138 input1
*139 input2
*140 input3
*141 output4
*142 output5
*143 output6

*PORTS
A[0] I
A[1] I
B[0] I
B[1] I
P[0] O
P[1] O
P[2] O
P[3] O

*D_NET *1 0.000574322
*CONN
*P A[0] I
*I *138:A I *D sky130_fd_sc_hd__clkbuf_1
*CAP
1 A[0] 0.000275863
2 *138:A 0.000275863
3 *138:A *140:A 2.25951e-05
*RES
1 A[0] *138:A 20.4803 
*END

*D_NET *2 0.000688885
*CONN
*P A[1] I
*I *139:A I *D sky130_fd_sc_hd__clkbuf_1
*CAP
1 A[1] 0.000328473
2 *139:A 0.000328473
3 *139:A *135:A 3.19385e-05
*RES
1 A[1] *139:A 21.6946 
*END

*D_NET *3 0.00249741
*CONN
*P B[0] I
*I *135:A I *D sky130_fd_sc_hd__clkbuf_1
*CAP
1 B[0] 0.00118987
2 *135:A 0.00118987
3 *135:A *140:A 8.57347e-05
4 *139:A *135:A 3.19385e-05
*RES
1 B[0] *135:A 29.2753 
*END

*D_NET *4 0.000499484
*CONN
*P B[1] I
*I *140:A I *D sky130_fd_sc_hd__clkbuf_1
*CAP
1 B[1] 0.000195577
2 *140:A 0.000195577
3 *140:A *134:A 0
4 *135:A *140:A 8.57347e-05
5 *138:A *140:A 2.25951e-05
*RES
1 B[1] *140:A 18.73 
*END

*D_NET *5 0.000581693
*CONN
*P P[0] O
*I *141:X O *D sky130_fd_sc_hd__buf_2
*CAP
1 P[0] 0.000202828
2 *141:X 0.000202828
3 P[0] P[2] 9.28756e-05
4 P[0] P[3] 8.31618e-05
*RES
1 *141:X P[0] 18.8021 
*END

*D_NET *6 0.00048928
*CONN
*P P[1] O
*I *142:X O *D sky130_fd_sc_hd__buf_2
*CAP
1 P[1] 0.000202616
2 *142:X 0.000202616
3 P[1] P[2] 8.40493e-05
*RES
1 *142:X P[1] 18.1949 
*END

*D_NET *7 0.000497786
*CONN
*P P[2] O
*I *143:X O *D sky130_fd_sc_hd__buf_2
*CAP
1 P[2] 0.000160431
2 *143:X 0.000160431
3 P[0] P[2] 9.28756e-05
4 P[1] P[2] 8.40493e-05
*RES
1 *143:X P[2] 18.1949 
*END

*D_NET *8 0.000643302
*CONN
*P P[3] O
*I *120:LO O *D sky130_fd_sc_hd__conb_1
*CAP
1 P[3] 0.00028007
2 *120:LO 0.00028007
3 P[0] P[3] 8.31618e-05
*RES
1 *120:LO P[3] 19.9443 
*END

*D_NET *11 0.00058801
*CONN
*I *133:B I *D sky130_fd_sc_hd__and2_1
*I *138:X O *D sky130_fd_sc_hd__clkbuf_1
*CAP
1 *133:B 0.000294005
2 *138:X 0.000294005
*RES
1 *138:X *133:B 23.1536 
*END

*D_NET *12 0.000711582
*CONN
*I *134:B I *D sky130_fd_sc_hd__and2_1
*I *139:X O *D sky130_fd_sc_hd__clkbuf_1
*CAP
1 *134:B 0.000355791
2 *139:X 0.000355791
3 *134:B *134:A 0
*RES
1 *139:X *134:B 33.3679 
*END

*D_NET *13 0.0011435
*CONN
*I *133:A I *D sky130_fd_sc_hd__and2_1
*I *134:A I *D sky130_fd_sc_hd__and2_1
*I *140:X O *D sky130_fd_sc_hd__clkbuf_1
*CAP
1 *133:A 0.00011515
2 *134:A 0.000195729
3 *140:X 0.000260871
4 *13:8 0.00057175
5 *134:A *137:A 0
6 *134:B *134:A 0
7 *140:A *134:A 0
*RES
1 *140:X *13:8 16.8 
2 *13:8 *134:A 17.2643 
3 *13:8 *133:A 15.4429 
*END

*D_NET *14 0.00196739
*CONN
*I *141:A I *D sky130_fd_sc_hd__buf_2
*I *135:X O *D sky130_fd_sc_hd__clkbuf_1
*CAP
1 *141:A 0.000983696
2 *135:X 0.000983696
*RES
1 *135:X *141:A 44.0464 
*END

*D_NET *15 0.00299621
*CONN
*I *142:A I *D sky130_fd_sc_hd__buf_2
*I *136:X O *D sky130_fd_sc_hd__clkbuf_1
*CAP
1 *142:A 0.00149811
2 *136:X 0.00149811
*RES
1 *136:X *142:A 42.1714 
*END

*D_NET *16 0.00368146
*CONN
*I *143:A I *D sky130_fd_sc_hd__buf_2
*I *137:X O *D sky130_fd_sc_hd__clkbuf_1
*CAP
1 *143:A 0.00184073
2 *137:X 0.00184073
*RES
1 *137:X *143:A 42.1714 
*END

*D_NET *17 0.000210398
*CONN
*I *136:A I *D sky130_fd_sc_hd__clkbuf_1
*I *133:X O *D sky130_fd_sc_hd__and2_1
*CAP
1 *136:A 0.000105199
2 *133:X 0.000105199
*RES
1 *133:X *136:A 20.3679 
*END

*D_NET *18 0.000496158
*CONN
*I *137:A I *D sky130_fd_sc_hd__clkbuf_1
*I *134:X O *D sky130_fd_sc_hd__and2_1
*CAP
1 *137:A 0.000248079
2 *134:X 0.000248079
3 *134:A *137:A 0
*RES
1 *134:X *137:A 31.0107 
*END
