*SPEF "ieee 1481-1999"
*DESIGN "mult4_SARSA_RUIDO_e9_SarsaNada_e6_SARSA_RUIDO_e9_SARSA_RUIDO_e9"
*DATE "18:41:35 Tuesday September 16, 2025"
*VENDOR "The OpenROAD Project"
*PROGRAM "OpenROAD"
*VERSION "edf00dff99f6c40d67a30c0e22a8191c5d2ed9d6"
*DESIGN_FLOW "NAME_SCOPE LOCAL" "PIN_CAP NONE"
*DIVIDER /
*DELIMITER :
*BUS_DELIMITER []
*T_UNIT 1 NS
*C_UNIT 1 PF
*R_UNIT 1 OHM
*L_UNIT 1 HENRY

*NAME_MAP
*1 A[0]
*2 A[1]
*3 A[2]
*4 A[3]
*5 B[0]
*6 B[1]
*7 B[2]
*8 B[3]
*9 P[0]
*10 P[1]
*11 P[2]
*12 P[3]
*13 P[4]
*14 P[5]
*15 P[6]
*16 P[7]
*19 _000_
*20 _001_
*21 _002_
*22 _003_
*23 _004_
*24 _005_
*25 _006_
*26 _007_
*27 _008_
*28 _009_
*29 _010_
*30 _011_
*31 _012_
*32 _013_
*33 _014_
*34 _015_
*35 _016_
*36 _017_
*37 _018_
*38 _019_
*39 _020_
*40 _021_
*41 _022_
*42 _023_
*43 _024_
*44 _025_
*45 _026_
*46 _027_
*47 _028_
*48 _029_
*49 _030_
*50 _031_
*51 _032_
*52 _033_
*53 _034_
*54 _035_
*55 _036_
*56 _037_
*57 _038_
*58 _039_
*59 _040_
*60 _041_
*61 _042_
*62 _043_
*63 _044_
*64 _045_
*65 _046_
*66 _047_
*67 _048_
*68 net1
*69 net10
*70 net11
*71 net12
*72 net13
*73 net14
*74 net15
*75 net16
*76 net2
*77 net3
*78 net4
*79 net5
*80 net6
*81 net7
*82 net8
*83 net9
*84 FILLER_0_15
*85 FILLER_0_21
*86 FILLER_0_29
*87 FILLER_0_3
*88 FILLER_0_41
*89 FILLER_0_54
*90 FILLER_0_57
*91 FILLER_0_63
*92 FILLER_0_80
*93 FILLER_1_11
*94 FILLER_1_25
*95 FILLER_1_3
*96 FILLER_1_50
*97 FILLER_1_60
*98 FILLER_1_76
*99 FILLER_2_11
*100 FILLER_2_25
*101 FILLER_2_29
*102 FILLER_2_3
*103 FILLER_2_33
*104 FILLER_2_37
*105 FILLER_2_45
*106 FILLER_2_57
*107 FILLER_2_65
*108 FILLER_2_75
*109 FILLER_3_16
*110 FILLER_3_24
*111 FILLER_3_3
*112 FILLER_3_34
*113 FILLER_3_42
*114 FILLER_3_78
*115 FILLER_3_9
*116 FILLER_4_19
*117 FILLER_4_27
*118 FILLER_4_29
*119 FILLER_4_3
*120 FILLER_4_40
*121 FILLER_4_60
*122 FILLER_4_72
*123 FILLER_4_76
*124 FILLER_4_8
*125 FILLER_5_18
*126 FILLER_5_22
*127 FILLER_5_41
*128 FILLER_5_52
*129 FILLER_5_57
*130 FILLER_5_63
*131 FILLER_5_7
*132 FILLER_6_15
*133 FILLER_6_29
*134 FILLER_6_3
*135 FILLER_6_41
*136 FILLER_6_58
*137 FILLER_6_76
*138 FILLER_7_20
*139 FILLER_7_28
*140 FILLER_7_33
*141 FILLER_7_45
*142 FILLER_7_54
*143 FILLER_7_57
*144 FILLER_7_65
*145 FILLER_7_80
*146 FILLER_8_15
*147 FILLER_8_3
*148 FILLER_8_36
*149 FILLER_8_42
*150 FILLER_8_55
*151 FILLER_8_67
*152 FILLER_8_79
*153 FILLER_9_19
*154 FILLER_9_27
*155 FILLER_9_36
*156 FILLER_9_57
*157 FILLER_9_63
*158 FILLER_9_7
*159 FILLER_9_75
*160 PHY_EDGE_ROW_0_Left_10
*161 PHY_EDGE_ROW_0_Right_0
*162 PHY_EDGE_ROW_1_Left_11
*163 PHY_EDGE_ROW_1_Right_1
*164 PHY_EDGE_ROW_2_Left_12
*165 PHY_EDGE_ROW_2_Right_2
*166 PHY_EDGE_ROW_3_Left_13
*167 PHY_EDGE_ROW_3_Right_3
*168 PHY_EDGE_ROW_4_Left_14
*169 PHY_EDGE_ROW_4_Right_4
*170 PHY_EDGE_ROW_5_Left_15
*171 PHY_EDGE_ROW_5_Right_5
*172 PHY_EDGE_ROW_6_Left_16
*173 PHY_EDGE_ROW_6_Right_6
*174 PHY_EDGE_ROW_7_Left_17
*175 PHY_EDGE_ROW_7_Right_7
*176 PHY_EDGE_ROW_8_Left_18
*177 PHY_EDGE_ROW_8_Right_8
*178 PHY_EDGE_ROW_9_Left_19
*179 PHY_EDGE_ROW_9_Right_9
*180 TAP_TAPCELL_ROW_0_20
*181 TAP_TAPCELL_ROW_0_21
*182 TAP_TAPCELL_ROW_1_22
*183 TAP_TAPCELL_ROW_2_23
*184 TAP_TAPCELL_ROW_3_24
*185 TAP_TAPCELL_ROW_4_25
*186 TAP_TAPCELL_ROW_5_26
*187 TAP_TAPCELL_ROW_6_27
*188 TAP_TAPCELL_ROW_7_28
*189 TAP_TAPCELL_ROW_8_29
*190 TAP_TAPCELL_ROW_9_30
*191 TAP_TAPCELL_ROW_9_31
*192 _049_
*193 _050_
*194 _051_
*195 _052_
*196 _053_
*197 _054_
*198 _055_
*199 _056_
*200 _057_
*201 _058_
*202 _059_
*203 _060_
*204 _061_
*205 _062_
*206 _063_
*207 _064_
*208 _065_
*209 _066_
*210 _067_
*211 _068_
*212 _069_
*213 _070_
*214 _071_
*215 _072_
*216 _073_
*217 _074_
*218 _075_
*219 _076_
*220 _077_
*221 _078_
*222 _079_
*223 _080_
*224 _081_
*225 _082_
*226 _083_
*227 _084_
*228 _085_
*229 _086_
*230 _087_
*231 _088_
*232 _089_
*233 _090_
*234 _091_
*235 _092_
*236 _093_
*237 _094_
*238 _095_
*239 _096_
*240 _097_
*241 _098_
*242 _099_
*243 _100_
*244 _101_
*245 _102_
*246 _103_
*247 _104_
*248 _105_
*249 input1
*250 input2
*251 input3
*252 input4
*253 input5
*254 input6
*255 input7
*256 input8
*257 output10
*258 output11
*259 output12
*260 output13
*261 output14
*262 output15
*263 output16
*264 output9

*PORTS
A[0] I
A[1] I
A[2] I
A[3] I
B[0] I
B[1] I
B[2] I
B[3] I
P[0] O
P[1] O
P[2] O
P[3] O
P[4] O
P[5] O
P[6] O
P[7] O

*D_NET *1 0.00144216
*CONN
*P A[0] I
*I *249:A I *D sky130_fd_sc_hd__clkbuf_2
*CAP
1 A[0] 0.000580968
2 *249:A 0.000580968
3 *249:A P[1] 0
4 *249:A *250:A 4.82919e-05
5 *249:A *21:8 4.64729e-05
6 *249:A *68:10 6.26568e-05
7 *249:A *76:10 0.000122797
*RES
1 A[0] *249:A 13.89 
*END

*D_NET *2 0.000822594
*CONN
*P A[1] I
*I *250:A I *D sky130_fd_sc_hd__dlymetal6s2s_1
*CAP
1 A[1] 0.000373389
2 *250:A 0.000373389
3 *250:A *217:A1 0
4 *250:A *68:10 2.75229e-05
5 *249:A *250:A 4.82919e-05
*RES
1 A[1] *250:A 10.35 
*END

*D_NET *3 0.000544071
*CONN
*P A[2] I
*I *251:A I *D sky130_fd_sc_hd__dlymetal6s2s_1
*CAP
1 A[2] 0.000187928
2 *251:A 0.000187928
3 *251:A P[2] 8.53361e-05
4 *251:A *252:A 8.28789e-05
5 *251:A *82:23 0
6 *251:A *82:34 0
*RES
1 A[2] *251:A 5.86677 
*END

*D_NET *4 0.000476767
*CONN
*P A[3] I
*I *252:A I *D sky130_fd_sc_hd__buf_1
*CAP
1 A[3] 0.000196944
2 *252:A 0.000196944
3 *251:A *252:A 8.28789e-05
*RES
1 A[3] *252:A 5.35677 
*END

*D_NET *5 0.0015066
*CONN
*P B[0] I
*I *253:A I *D sky130_fd_sc_hd__buf_1
*CAP
1 B[0] 0.000598573
2 *253:A 0.000598573
3 *253:A *192:A 5.53774e-05
4 *253:A *192:B 3.30651e-05
5 *253:A *193:A 3.95724e-05
6 *253:A *200:A1 1.17409e-05
7 *253:A *200:A2 8.65961e-05
8 *253:A *200:B1 2.11084e-05
9 *253:A *255:A 0
10 *253:A *19:23 9.27255e-06
11 *253:A *25:12 4.82863e-05
12 *253:A *68:37 4.43871e-06
*RES
1 B[0] *253:A 14.115 
*END

*D_NET *6 0.00172619
*CONN
*P B[1] I
*I *254:A I *D sky130_fd_sc_hd__buf_1
*CAP
1 B[1] 0.000584625
2 *254:A 0.000584625
3 *254:A P[1] 0
4 *254:A *194:B 2.75145e-05
5 *254:A *195:B 0.000136884
6 *254:A *196:C 5.83121e-06
7 *254:A *198:B1_N 7.35813e-05
8 *254:A *255:A 0
9 *254:A *257:A 7.3664e-05
10 *254:A *20:10 8.8266e-05
11 *254:A *76:23 7.21296e-06
12 *254:A *79:36 8.59365e-05
13 *254:A *80:10 2.03356e-05
14 *254:A *81:10 3.77199e-05
*RES
1 B[1] *254:A 14.985 
*END

*D_NET *7 0.000860384
*CONN
*P B[2] I
*I *255:A I *D sky130_fd_sc_hd__clkbuf_2
*CAP
1 B[2] 0.00037303
2 *255:A 0.00037303
3 *255:A *68:37 8.65961e-05
4 *255:A *81:10 2.77283e-05
5 *253:A *255:A 0
6 *254:A *255:A 0
*RES
1 B[2] *255:A 10.44 
*END

*D_NET *8 0.000412457
*CONN
*P B[3] I
*I *256:A I *D sky130_fd_sc_hd__buf_2
*CAP
1 B[3] 0.000125038
2 *256:A 0.000125038
3 *256:A P[0] 7.70436e-05
4 *256:A P[2] 8.53361e-05
5 *256:A *25:12 0
*RES
1 B[3] *256:A 4.84677 
*END

*D_NET *9 0.000478955
*CONN
*P P[0] O
*I *264:X O *D sky130_fd_sc_hd__buf_2
*CAP
1 P[0] 0.000190673
2 *264:X 0.000190673
3 P[0] *264:A 2.05641e-05
4 *256:A P[0] 7.70436e-05
*RES
1 *264:X P[0] 4.90503 
*END

*D_NET *10 0.000831839
*CONN
*P P[1] O
*I *257:X O *D sky130_fd_sc_hd__buf_2
*CAP
1 P[1] 0.000392085
2 *257:X 0.000392085
3 P[1] *76:10 4.76682e-05
4 *249:A P[1] 0
5 *254:A P[1] 0
*RES
1 *257:X P[1] 10.395 
*END

*D_NET *11 0.000598466
*CONN
*P P[2] O
*I *258:X O *D sky130_fd_sc_hd__buf_2
*CAP
1 P[2] 0.000193629
2 *258:X 0.000193629
3 P[2] *258:A 4.05358e-05
4 P[2] *82:23 0
5 *251:A P[2] 8.53361e-05
6 *256:A P[2] 8.53361e-05
*RES
1 *258:X P[2] 5.92503 
*END

*D_NET *12 0.000660091
*CONN
*P P[3] O
*I *259:X O *D sky130_fd_sc_hd__buf_2
*CAP
1 P[3] 0.000330046
2 *259:X 0.000330046
*RES
1 *259:X P[3] 7.1793 
*END

*D_NET *13 0.000651865
*CONN
*P P[4] O
*I *260:X O *D sky130_fd_sc_hd__buf_2
*CAP
1 P[4] 0.00029701
2 *260:X 0.00029701
3 P[4] *260:A 5.78448e-05
*RES
1 *260:X P[4] 5.9833 
*END

*D_NET *14 0.00133647
*CONN
*P P[5] O
*I *261:X O *D sky130_fd_sc_hd__buf_2
*CAP
1 P[5] 0.000623363
2 *261:X 0.000623363
3 P[5] P[7] 0
4 P[5] *261:A 8.97486e-05
*RES
1 *261:X P[5] 14.865 
*END

*D_NET *15 0.000894056
*CONN
*P P[6] O
*I *262:X O *D sky130_fd_sc_hd__buf_2
*CAP
1 P[6] 0.000447028
2 *262:X 0.000447028
*RES
1 *262:X P[6] 11.55 
*END

*D_NET *16 0.00118839
*CONN
*P P[7] O
*I *263:X O *D sky130_fd_sc_hd__buf_2
*CAP
1 P[7] 0.000579846
2 *263:X 0.000579846
3 P[7] *263:A 2.86975e-05
4 P[5] P[7] 0
*RES
1 *263:X P[7] 12.69 
*END

*D_NET *19 0.00141253
*CONN
*I *199:B I *D sky130_fd_sc_hd__and4_1
*I *193:A I *D sky130_fd_sc_hd__inv_2
*I *200:A1 I *D sky130_fd_sc_hd__a22o_1
*I *192:Y O *D sky130_fd_sc_hd__nand2_1
*CAP
1 *199:B 6.61897e-05
2 *193:A 0.000167226
3 *200:A1 0.000208825
4 *192:Y 0
5 *19:23 0.000266589
6 *19:4 0.000241999
7 *193:A *192:A 9.52834e-06
8 *193:A *25:12 2.11552e-05
9 *193:A *79:23 8.53113e-06
10 *199:B *264:A 0
11 *199:B *25:12 6.73424e-05
12 *199:B *79:23 7.06865e-05
13 *200:A1 *192:B 0.000120655
14 *200:A1 *200:A2 3.9442e-05
15 *200:A1 *200:B1 5.16418e-05
16 *200:A1 *200:B2 0
17 *200:A1 *25:12 7.21296e-06
18 *200:A1 *68:37 0
19 *19:23 *192:A 4.9253e-06
20 *253:A *193:A 3.95724e-05
21 *253:A *200:A1 1.17409e-05
22 *253:A *19:23 9.27255e-06
*RES
1 *192:Y *19:4 1.6 
2 *19:4 *200:A1 8.66 
3 *19:4 *19:23 2.45 
4 *19:23 *193:A 6.27 
5 *19:23 *199:B 5.235 
*END

*D_NET *20 0.00193003
*CONN
*I *199:C I *D sky130_fd_sc_hd__and4_1
*I *200:A2 I *D sky130_fd_sc_hd__a22o_1
*I *194:X O *D sky130_fd_sc_hd__and2_1
*CAP
1 *199:C 4.84084e-05
2 *200:A2 0.000112302
3 *194:X 0.000372577
4 *20:10 0.000533288
5 *199:C *199:A 1.47347e-05
6 *199:C *199:D 3.57349e-05
7 *200:A2 *192:B 4.80285e-05
8 *200:A2 *198:A2 0
9 *200:A2 *200:B1 4.71081e-05
10 *200:A2 *25:12 0.000220452
11 *20:10 *198:A1 5.05521e-05
12 *20:10 *198:B1_N 6.05513e-05
13 *20:10 *199:A 2.59835e-05
14 *20:10 *199:D 8.65905e-05
15 *20:10 *200:B1 4.82919e-05
16 *20:10 *79:23 1.11186e-05
17 *200:A1 *200:A2 3.9442e-05
18 *253:A *200:A2 8.65961e-05
19 *254:A *20:10 8.8266e-05
*RES
1 *194:X *20:10 7.345 
2 *20:10 *200:A2 9.05 
3 *20:10 *199:C 2.395 
*END

*D_NET *21 0.00296557
*CONN
*I *196:A_N I *D sky130_fd_sc_hd__and3b_1
*I *218:B1 I *D sky130_fd_sc_hd__a21o_1
*I *214:A I *D sky130_fd_sc_hd__and3_1
*I *217:B1 I *D sky130_fd_sc_hd__a21oi_1
*I *195:X O *D sky130_fd_sc_hd__and4_1
*CAP
1 *196:A_N 8.23996e-05
2 *218:B1 0
3 *214:A 7.2103e-05
4 *217:B1 0.000124107
5 *195:X 0.000114072
6 *21:25 0.000131025
7 *21:8 0.000773562
8 *21:6 0.000787005
9 *214:A *214:C 0.000117609
10 *214:A *218:A2 0
11 *214:A *37:10 4.66108e-05
12 *217:B1 *217:A1 3.72916e-05
13 *217:B1 *41:10 3.00381e-05
14 *21:6 *257:A 1.61831e-05
15 *21:6 *68:24 5.83121e-06
16 *21:6 *76:10 3.20751e-05
17 *21:8 *217:A1 8.88108e-06
18 *21:8 *68:10 0.000201503
19 *21:8 *76:10 0.000143652
20 *21:25 *217:A1 3.67779e-05
21 *21:25 *217:A2 0.000116158
22 *21:25 *30:14 3.50033e-05
23 *21:25 *41:10 7.21296e-06
24 *249:A *21:8 4.64729e-05
*RES
1 *195:X *21:6 3.085 
2 *21:6 *21:8 7.695 
3 *21:8 *217:B1 4.06 
4 *21:8 *21:25 5.635 
5 *21:25 *214:A 3.1 
6 *21:25 *218:B1 1.6 
7 *21:6 *196:A_N 6.725 
*END

*D_NET *22 0.00411705
*CONN
*I *210:B2 I *D sky130_fd_sc_hd__a2bb2o_1
*I *209:C I *D sky130_fd_sc_hd__nand4b_1
*I *202:A I *D sky130_fd_sc_hd__xnor2_1
*I *197:Y O *D sky130_fd_sc_hd__nand2_1
*CAP
1 *210:B2 2.09808e-05
2 *209:C 0.000177207
3 *202:A 0.000181015
4 *197:Y 7.56079e-05
5 *22:25 0.00117141
6 *22:8 0.00122985
7 *202:A *224:A1 4.82919e-05
8 *209:C *209:D 9.50342e-06
9 *209:C *210:A2_N 0
10 *209:C *210:B1 5.25432e-05
11 *209:C *33:12 0
12 *209:C *44:10 0
13 *22:8 *197:B 9.54399e-05
14 *22:8 *224:A3 0.000117832
15 *22:8 *224:B1 1.26626e-05
16 *22:8 *77:25 0
17 *22:8 *82:23 1.52945e-05
18 *22:25 *210:A1_N 4.40444e-05
19 *22:25 *210:B1 3.64998e-06
20 *22:25 *231:A 0.000262108
21 *22:25 *29:23 0.000457032
22 *22:25 *55:10 0.000107796
23 *22:25 *77:25 0
24 *22:25 *82:23 3.47837e-05
*RES
1 *197:Y *22:8 5.49 
2 *22:8 *202:A 6.135 
3 *22:8 *22:25 14.96 
4 *22:25 *209:C 8.12 
5 *22:25 *210:B2 1.96 
*END

*D_NET *23 0.000827154
*CONN
*I *199:D I *D sky130_fd_sc_hd__and4_1
*I *200:B1 I *D sky130_fd_sc_hd__a22o_1
*I *198:X O *D sky130_fd_sc_hd__a21bo_1
*CAP
1 *199:D 2.88188e-05
2 *200:B1 0.000139865
3 *198:X 0
4 *23:4 0.000168684
5 *199:D *199:A 6.26945e-05
6 *200:B1 *192:B 4.82863e-05
7 *200:B1 *198:A1 0
8 *200:B1 *198:A2 9.50342e-06
9 *200:B1 *199:A 5.93448e-05
10 *200:B1 *200:B2 1.94805e-05
11 *200:B1 *80:41 0
12 *199:C *199:D 3.57349e-05
13 *200:A1 *200:B1 5.16418e-05
14 *200:A2 *200:B1 4.71081e-05
15 *253:A *200:B1 2.11084e-05
16 *20:10 *199:D 8.65905e-05
17 *20:10 *200:B1 4.82919e-05
*RES
1 *198:X *23:4 1.6 
2 *23:4 *200:B1 9.005 
3 *23:4 *199:D 2.74 
*END

*D_NET *24 0.000666251
*CONN
*I *224:B1 I *D sky130_fd_sc_hd__a31o_1
*I *201:A_N I *D sky130_fd_sc_hd__and2b_1
*I *199:X O *D sky130_fd_sc_hd__and4_1
*CAP
1 *224:B1 4.07975e-05
2 *201:A_N 0
3 *199:X 5.38433e-05
4 *24:8 9.46408e-05
5 *224:B1 *197:B 0.000129742
6 *224:B1 *82:23 0.000163992
7 *24:8 *197:B 3.25831e-05
8 *24:8 *198:A2 2.66935e-05
9 *24:8 *25:12 3.42142e-05
10 *24:8 *80:41 0
11 *24:8 *82:23 7.70828e-05
12 *22:8 *224:B1 1.26626e-05
*RES
1 *199:X *24:8 5.235 
2 *24:8 *201:A_N 3.6 
3 *24:8 *224:B1 5.49 
*END

*D_NET *25 0.00172914
*CONN
*I *201:B I *D sky130_fd_sc_hd__and2b_1
*I *224:A3 I *D sky130_fd_sc_hd__a31o_1
*I *200:X O *D sky130_fd_sc_hd__a22o_1
*CAP
1 *201:B 2.68224e-05
2 *224:A3 0.000202451
3 *200:X 0.000279788
4 *25:12 0.000509061
5 *201:B *82:6 1.17409e-05
6 *224:A3 *197:A 7.00889e-06
7 *224:A3 *197:B 1.15688e-05
8 *224:A3 *198:A2 4.41363e-05
9 *224:A3 *224:A1 0
10 *224:A3 *77:25 1.0183e-05
11 *224:A3 *82:6 1.1392e-05
12 *25:12 *198:A2 0
13 *25:12 *68:37 0
14 *25:12 *82:23 9.84957e-05
15 *193:A *25:12 2.11552e-05
16 *199:B *25:12 6.73424e-05
17 *200:A1 *25:12 7.21296e-06
18 *200:A2 *25:12 0.000220452
19 *253:A *25:12 4.82863e-05
20 *256:A *25:12 0
21 *22:8 *224:A3 0.000117832
22 *24:8 *25:12 3.42142e-05
*RES
1 *200:X *25:12 11.255 
2 *25:12 *224:A3 9.065 
3 *25:12 *201:B 2.05 
*END

*D_NET *26 0.000170289
*CONN
*I *202:B I *D sky130_fd_sc_hd__xnor2_1
*I *201:X O *D sky130_fd_sc_hd__and2b_1
*CAP
1 *202:B 8.51447e-05
2 *201:X 8.51447e-05
3 *202:B *82:23 0
*RES
1 *201:X *202:B 8.58 
*END

*D_NET *27 0.0013413
*CONN
*I *204:A I *D sky130_fd_sc_hd__inv_2
*I *241:C I *D sky130_fd_sc_hd__and3_1
*I *203:Y O *D sky130_fd_sc_hd__nand2_1
*CAP
1 *204:A 0.000210582
2 *241:C 0.000141449
3 *203:Y 0
4 *27:4 0.000352031
5 *204:A *203:B 2.16833e-05
6 *204:A *229:B 9.80943e-06
7 *204:A *241:B 4.18603e-06
8 *204:A *77:67 0
9 *204:A *78:22 0.0001249
10 *204:A *78:50 4.40812e-05
11 *241:C *203:A 2.5512e-05
12 *241:C *241:A 7.22271e-05
13 *241:C *28:16 0.000148845
14 *241:C *54:10 4.75576e-05
15 *241:C *81:55 1.48666e-05
16 *241:C *82:40 8.49205e-05
17 *241:C *82:57 3.86529e-05
*RES
1 *203:Y *27:4 1.6 
2 *27:4 *241:C 8.885 
3 *27:4 *204:A 8.81 
*END

*D_NET *28 0.0028061
*CONN
*I *245:A1 I *D sky130_fd_sc_hd__o311a_1
*I *212:B1 I *D sky130_fd_sc_hd__a21o_1
*I *236:A1 I *D sky130_fd_sc_hd__a21bo_1
*I *211:A I *D sky130_fd_sc_hd__nand3_1
*I *204:Y O *D sky130_fd_sc_hd__inv_2
*CAP
1 *245:A1 0
2 *212:B1 0
3 *236:A1 0
4 *211:A 9.35459e-05
5 *204:Y 0.000132118
6 *28:18 0.000150237
7 *28:16 0.000345102
8 *28:8 0.000420529
9 *211:A *211:B 4.66108e-05
10 *211:A *211:C 0.000124007
11 *211:A *239:B1 0.000158066
12 *211:A *33:23 1.52249e-05
13 *211:A *34:23 2.55546e-05
14 *211:A *48:16 6.90876e-05
15 *28:8 *241:B 0.000152445
16 *28:8 *245:C1 0
17 *28:8 *56:6 0.000198939
18 *28:8 *82:40 1.80164e-05
19 *28:16 *241:A 5.02447e-05
20 *28:16 *241:B 0.000174826
21 *28:16 *34:12 2.56752e-06
22 *28:16 *36:12 8.16334e-05
23 *28:16 *82:40 2.16917e-05
24 *28:18 *34:23 0.000272385
25 *28:18 *48:16 0.000104426
26 *241:C *28:16 0.000148845
*RES
1 *204:Y *28:8 4.735 
2 *28:8 *28:16 10.135 
3 *28:16 *28:18 2.52 
4 *28:18 *211:A 4.84 
5 *28:18 *236:A1 1.6 
6 *28:16 *212:B1 1.6 
7 *28:8 *245:A1 1.6 
*END

*D_NET *29 0.00227317
*CONN
*I *231:A I *D sky130_fd_sc_hd__and2_1
*I *232:A I *D sky130_fd_sc_hd__xnor2_1
*I *210:A1_N I *D sky130_fd_sc_hd__a2bb2o_1
*I *205:X O *D sky130_fd_sc_hd__and4_1
*CAP
1 *231:A 6.57053e-05
2 *232:A 2.61055e-05
3 *210:A1_N 3.4681e-05
4 *205:X 0.000241528
5 *29:23 0.000270332
6 *29:12 0.00045473
7 *210:A1_N *34:12 3.64998e-06
8 *231:A *231:B 5.42552e-05
9 *231:A *232:B 8.57321e-05
10 *231:A *55:10 1.61831e-05
11 *232:A *231:B 0
12 *232:A *232:B 1.15832e-05
13 *232:A *54:10 1.61496e-05
14 *29:12 *207:B 4.99619e-05
15 *29:12 *209:D 0
16 *29:12 *210:A2_N 5.29395e-05
17 *29:12 *31:14 0.000115778
18 *29:12 *82:57 0
19 *29:23 *34:12 1.06688e-05
20 *22:25 *210:A1_N 4.40444e-05
21 *22:25 *231:A 0.000262108
22 *22:25 *29:23 0.000457032
*RES
1 *205:X *29:12 9.98 
2 *29:12 *210:A1_N 2.395 
3 *29:12 *29:23 4.605 
4 *29:23 *232:A 2.515 
5 *29:23 *231:A 4.48 
*END

*D_NET *30 0.00280053
*CONN
*I *209:D I *D sky130_fd_sc_hd__nand4b_1
*I *218:A1 I *D sky130_fd_sc_hd__a21o_1
*I *214:B I *D sky130_fd_sc_hd__and3_1
*I *217:A1 I *D sky130_fd_sc_hd__a21oi_1
*I *206:Y O *D sky130_fd_sc_hd__nand4_2
*CAP
1 *209:D 0.000217632
2 *218:A1 0
3 *214:B 0.00020217
4 *217:A1 0.000233426
5 *206:Y 0.000109959
6 *30:14 0.000519236
7 *30:10 0.000311001
8 *30:8 0.000554953
9 *209:D *213:B1 7.06865e-05
10 *209:D *31:14 0
11 *209:D *44:10 0
12 *209:D *76:71 0
13 *209:D *82:72 0
14 *214:B *214:C 8.30411e-05
15 *214:B *37:10 6.1357e-05
16 *217:A1 *217:A2 2.75538e-05
17 *217:A1 *68:10 0
18 *30:8 *213:A1 0.00010576
19 *30:8 *213:B2 1.87367e-05
20 *30:10 *213:A1 8.57024e-05
21 *30:10 *213:A2 1.61831e-05
22 *30:10 *37:8 3.72916e-05
23 *30:10 *37:10 1.83847e-05
24 *30:14 *213:B1 0
25 *30:14 *220:A2 0
26 *30:14 *41:10 0
27 *30:14 *68:81 0
28 *209:C *209:D 9.50342e-06
29 *217:B1 *217:A1 3.72916e-05
30 *250:A *217:A1 0
31 *21:8 *217:A1 8.88108e-06
32 *21:25 *217:A1 3.67779e-05
33 *21:25 *30:14 3.50033e-05
34 *29:12 *209:D 0
*RES
1 *206:Y *30:8 3.355 
2 *30:8 *30:10 2.865 
3 *30:10 *30:14 3.38 
4 *30:14 *217:A1 7.23 
5 *30:14 *214:B 6.12 
6 *30:10 *218:A1 1.6 
7 *30:8 *209:D 9.275 
*END

*D_NET *31 0.00116756
*CONN
*I *210:A2_N I *D sky130_fd_sc_hd__a2bb2o_1
*I *209:A_N I *D sky130_fd_sc_hd__nand4b_1
*I *207:Y O *D sky130_fd_sc_hd__nand2_1
*CAP
1 *210:A2_N 8.1936e-05
2 *209:A_N 3.49189e-05
3 *207:Y 0.00022637
4 *31:14 0.000343225
5 *209:A_N *209:B 4.89295e-05
6 *209:A_N *32:6 0.00011138
7 *209:A_N *40:6 6.28928e-05
8 *210:A2_N *210:B1 4.67041e-05
9 *31:14 *207:A 1.16854e-05
10 *31:14 *207:B 3.08022e-05
11 *209:C *210:A2_N 0
12 *209:D *31:14 0
13 *29:12 *210:A2_N 5.29395e-05
14 *29:12 *31:14 0.000115778
*RES
1 *207:Y *31:14 7.275 
2 *31:14 *209:A_N 5.085 
3 *31:14 *210:A2_N 5.49 
*END

*D_NET *32 0.00129484
*CONN
*I *210:B1 I *D sky130_fd_sc_hd__a2bb2o_1
*I *209:B I *D sky130_fd_sc_hd__nand4b_1
*I *208:X O *D sky130_fd_sc_hd__and2_1
*CAP
1 *210:B1 0.000132716
2 *209:B 8.91068e-05
3 *208:X 0.000233217
4 *32:6 0.00045504
5 *209:B *40:6 3.48307e-05
6 *210:B1 *33:12 0
7 *32:6 *40:6 8.67256e-05
8 *209:A_N *209:B 4.89295e-05
9 *209:A_N *32:6 0.00011138
10 *209:C *210:B1 5.25432e-05
11 *210:A2_N *210:B1 4.67041e-05
12 *22:25 *210:B1 3.64998e-06
*RES
1 *208:X *32:6 5.5 
2 *32:6 *209:B 3.085 
3 *32:6 *210:B1 7.94 
*END

*D_NET *33 0.00215851
*CONN
*I *212:A1 I *D sky130_fd_sc_hd__a21o_1
*I *236:B1_N I *D sky130_fd_sc_hd__a21bo_1
*I *211:B I *D sky130_fd_sc_hd__nand3_1
*I *209:Y O *D sky130_fd_sc_hd__nand4b_1
*CAP
1 *212:A1 0.000134616
2 *236:B1_N 0
3 *211:B 2.27504e-05
4 *209:Y 0.000222593
5 *33:23 0.000401129
6 *33:12 0.000511857
7 *212:A1 *34:23 0.00018533
8 *33:12 *239:B1 2.59981e-05
9 *33:12 *40:6 1.16646e-05
10 *33:12 *44:10 0.000314431
11 *33:23 *211:C 6.52265e-05
12 *33:23 *34:23 0.000201079
13 *209:C *33:12 0
14 *210:B1 *33:12 0
15 *211:A *211:B 4.66108e-05
16 *211:A *33:23 1.52249e-05
*RES
1 *209:Y *33:12 10.07 
2 *33:12 *211:B 2.05 
3 *33:12 *33:23 3.825 
4 *33:23 *236:B1_N 1.6 
5 *33:23 *212:A1 3.43 
*END

*D_NET *34 0.00153754
*CONN
*I *236:A2 I *D sky130_fd_sc_hd__a21bo_1
*I *211:C I *D sky130_fd_sc_hd__nand3_1
*I *212:A2 I *D sky130_fd_sc_hd__a21o_1
*I *210:X O *D sky130_fd_sc_hd__a2bb2o_1
*CAP
1 *236:A2 0
2 *211:C 2.47308e-05
3 *212:A2 0
4 *210:X 0.000153769
5 *34:23 0.000151557
6 *34:12 0.000280594
7 *34:23 *48:16 3.64226e-05
8 *210:A1_N *34:12 3.64998e-06
9 *211:A *211:C 0.000124007
10 *211:A *34:23 2.55546e-05
11 *212:A1 *34:23 0.00018533
12 *28:16 *34:12 2.56752e-06
13 *28:18 *34:23 0.000272385
14 *29:23 *34:12 1.06688e-05
15 *33:23 *211:C 6.52265e-05
16 *33:23 *34:23 0.000201079
*RES
1 *210:X *34:12 7.685 
2 *34:12 *212:A2 1.6 
3 *34:12 *34:23 4.62 
4 *34:23 *211:C 2.74 
5 *34:23 *236:A2 1.6 
*END

*D_NET *35 0.000368097
*CONN
*I *221:A I *D sky130_fd_sc_hd__and3_1
*I *222:A1 I *D sky130_fd_sc_hd__a21o_1
*I *211:Y O *D sky130_fd_sc_hd__nand3_1
*CAP
1 *221:A 0
2 *222:A1 2.21531e-05
3 *211:Y 5.82801e-05
4 *35:10 8.04332e-05
5 *222:A1 *222:A2 4.82863e-05
6 *222:A1 *222:B1 8.65905e-05
7 *35:10 *240:B1 0
8 *35:10 *44:10 7.23533e-05
*RES
1 *211:Y *35:10 6.725 
2 *35:10 *222:A1 2.395 
3 *35:10 *221:A 1.6 
*END

*D_NET *36 0.00150017
*CONN
*I *221:B I *D sky130_fd_sc_hd__and3_1
*I *222:A2 I *D sky130_fd_sc_hd__a21o_1
*I *212:X O *D sky130_fd_sc_hd__a21o_1
*CAP
1 *221:B 0
2 *222:A2 0.000103562
3 *212:X 0.000453464
4 *36:12 0.000557025
5 *222:A2 *221:C 2.75229e-05
6 *222:A2 *222:B1 1.91597e-05
7 *36:12 *221:C 8.80347e-07
8 *36:12 *237:B 0
9 *36:12 *239:B1 0
10 *36:12 *45:10 0.000208636
11 *222:A1 *222:A2 4.82863e-05
12 *28:16 *36:12 8.16334e-05
*RES
1 *212:X *36:12 12.065 
2 *36:12 *222:A2 3.61 
3 *36:12 *221:B 1.6 
*END

*D_NET *37 0.0012139
*CONN
*I *218:A2 I *D sky130_fd_sc_hd__a21o_1
*I *217:A2 I *D sky130_fd_sc_hd__a21oi_1
*I *214:C I *D sky130_fd_sc_hd__and3_1
*I *213:X O *D sky130_fd_sc_hd__a22o_1
*CAP
1 *218:A2 1.15106e-05
2 *217:A2 0.000101312
3 *214:C 9.17848e-05
4 *213:X 4.84433e-05
5 *37:10 0.000259782
6 *37:8 0.00012664
7 *217:A2 *41:10 6.10014e-05
8 *218:A2 *213:A2 0
9 *37:8 *213:A2 5.4155e-06
10 *214:A *214:C 0.000117609
11 *214:A *218:A2 0
12 *214:A *37:10 4.66108e-05
13 *214:B *214:C 8.30411e-05
14 *214:B *37:10 6.1357e-05
15 *217:A1 *217:A2 2.75538e-05
16 *21:25 *217:A2 0.000116158
17 *30:10 *37:8 3.72916e-05
18 *30:10 *37:10 1.83847e-05
*RES
1 *213:X *37:8 2.755 
2 *37:8 *37:10 1.485 
3 *37:10 *214:C 3.865 
4 *37:10 *217:A2 7.745 
5 *37:8 *218:A2 1.96 
*END

*D_NET *38 0.0012307
*CONN
*I *225:A1 I *D sky130_fd_sc_hd__o21bai_1
*I *219:A I *D sky130_fd_sc_hd__or3b_1
*I *220:B1 I *D sky130_fd_sc_hd__a21o_1
*I *214:X O *D sky130_fd_sc_hd__and3_1
*CAP
1 *225:A1 0.000130988
2 *219:A 0
3 *220:B1 0.000241315
4 *214:X 0.000104781
5 *38:10 0.000241315
6 *38:8 0.00023577
7 *220:B1 *219:B 1.17309e-05
8 *220:B1 *219:C_N 5.20981e-05
9 *225:A1 *225:A2 4.82919e-05
10 *225:A1 *41:10 0
11 *225:A1 *43:10 0.000136884
12 *225:A1 *49:10 2.75229e-05
13 *38:8 *41:10 0
*RES
1 *214:X *38:8 4.98 
2 *38:8 *38:10 2 
3 *38:10 *220:B1 5.185 
4 *38:10 *219:A 1.6 
5 *38:8 *225:A1 6.45 
*END

*D_NET *39 0.00144996
*CONN
*I *216:A_N I *D sky130_fd_sc_hd__and3b_1
*I *231:B I *D sky130_fd_sc_hd__and2_1
*I *232:B I *D sky130_fd_sc_hd__xnor2_1
*I *215:X O *D sky130_fd_sc_hd__and4_1
*CAP
1 *216:A_N 0.000200355
2 *231:B 3.34181e-05
3 *232:B 3.88654e-05
4 *215:X 0
5 *39:10 0.000177141
6 *39:4 0.000305213
7 *216:A_N *215:D 0
8 *216:A_N *224:A1 4.66108e-05
9 *216:A_N *48:16 5.05437e-05
10 *216:A_N *77:27 5.23966e-05
11 *216:A_N *80:43 0.000163199
12 *231:B *55:10 8.65961e-05
13 *232:B *54:10 6.52265e-05
14 *232:B *55:10 4.82863e-05
15 *39:10 *215:B 2.97004e-06
16 *39:10 *48:16 0
17 *39:10 *78:30 2.75707e-05
18 *231:A *231:B 5.42552e-05
19 *231:A *232:B 8.57321e-05
20 *232:A *231:B 0
21 *232:A *232:B 1.15832e-05
*RES
1 *215:X *39:4 1.6 
2 *39:4 *39:10 5.635 
3 *39:10 *232:B 3.085 
4 *39:10 *231:B 2.755 
5 *39:4 *216:A_N 5.185 
*END

*D_NET *40 0.00379867
*CONN
*I *219:C_N I *D sky130_fd_sc_hd__or3b_1
*I *220:A1 I *D sky130_fd_sc_hd__a21o_1
*I *225:B1_N I *D sky130_fd_sc_hd__o21bai_1
*I *216:X O *D sky130_fd_sc_hd__and3b_1
*CAP
1 *219:C_N 6.59195e-05
2 *220:A1 0
3 *225:B1_N 0.000305748
4 *216:X 0.00105808
5 *40:19 0.000157737
6 *40:6 0.00145564
7 *219:C_N *219:B 5.83121e-06
8 *225:B1_N *225:A2 0.000113247
9 *225:B1_N *49:10 4.39911e-06
10 *40:6 *208:B 0.000115779
11 *40:6 *215:C 1.34503e-05
12 *40:6 *215:D 0.000164874
13 *40:6 *80:43 7.68414e-06
14 *40:19 *220:A2 9.50342e-06
15 *40:19 *225:A2 3.67779e-05
16 *40:19 *41:10 3.57846e-05
17 *40:19 *44:10 0
18 *209:A_N *40:6 6.28928e-05
19 *209:B *40:6 3.48307e-05
20 *220:B1 *219:C_N 5.20981e-05
21 *32:6 *40:6 8.67256e-05
22 *33:12 *40:6 1.16646e-05
*RES
1 *216:X *40:6 14.47 
2 *40:6 *225:B1_N 5.155 
3 *40:6 *40:19 5.635 
4 *40:19 *220:A1 1.6 
5 *40:19 *219:C_N 3.115 
*END

*D_NET *41 0.00147187
*CONN
*I *225:A2 I *D sky130_fd_sc_hd__o21bai_1
*I *219:B I *D sky130_fd_sc_hd__or3b_1
*I *217:Y O *D sky130_fd_sc_hd__a21oi_1
*CAP
1 *225:A2 0.000173946
2 *219:B 3.74617e-05
3 *217:Y 0.000284654
4 *41:10 0.000496062
5 *225:A2 *44:10 0
6 *225:A2 *49:10 1.19928e-05
7 *41:10 *220:A2 0.000117832
8 *217:A2 *41:10 6.10014e-05
9 *217:B1 *41:10 3.00381e-05
10 *219:C_N *219:B 5.83121e-06
11 *220:B1 *219:B 1.17309e-05
12 *225:A1 *225:A2 4.82919e-05
13 *225:A1 *41:10 0
14 *225:B1_N *225:A2 0.000113247
15 *21:25 *41:10 7.21296e-06
16 *30:14 *41:10 0
17 *38:8 *41:10 0
18 *40:19 *225:A2 3.67779e-05
19 *40:19 *41:10 3.57846e-05
*RES
1 *217:Y *41:10 8.235 
2 *41:10 *219:B 4.05 
3 *41:10 *225:A2 7.17 
*END

*D_NET *42 0.000244328
*CONN
*I *220:A2 I *D sky130_fd_sc_hd__a21o_1
*I *218:X O *D sky130_fd_sc_hd__a21o_1
*CAP
1 *220:A2 5.84964e-05
2 *218:X 5.84964e-05
3 *30:14 *220:A2 0
4 *40:19 *220:A2 9.50342e-06
5 *41:10 *220:A2 0.000117832
*RES
1 *218:X *220:A2 8.58 
*END

*D_NET *43 0.00133626
*CONN
*I *239:A1 I *D sky130_fd_sc_hd__a31o_1
*I *247:A1 I *D sky130_fd_sc_hd__a21oi_1
*I *226:A I *D sky130_fd_sc_hd__and3_1
*I *219:X O *D sky130_fd_sc_hd__or3b_1
*CAP
1 *239:A1 0.000161006
2 *247:A1 5.69007e-05
3 *226:A 1.85694e-05
4 *219:X 0.000207706
5 *43:14 0.000110689
6 *43:10 0.000403931
7 *226:A *226:C 9.53428e-06
8 *239:A1 *239:A3 9.34489e-05
9 *239:A1 *49:10 2.59981e-05
10 *239:A1 *50:23 0
11 *247:A1 *226:C 2.75145e-05
12 *247:A1 *248:B 1.47347e-05
13 *43:10 *49:10 3.67779e-05
14 *43:14 *226:C 3.25676e-05
15 *225:A1 *43:10 0.000136884
*RES
1 *219:X *43:10 6.96 
2 *43:10 *43:14 2.45 
3 *43:14 *226:A 1.96 
4 *43:14 *247:A1 2.395 
5 *43:10 *239:A1 6.255 
*END

*D_NET *44 0.0017452
*CONN
*I *221:C I *D sky130_fd_sc_hd__and3_1
*I *222:B1 I *D sky130_fd_sc_hd__a21o_1
*I *220:X O *D sky130_fd_sc_hd__a21o_1
*CAP
1 *221:C 3.39034e-05
2 *222:B1 0.000186254
3 *220:X 0.000370984
4 *44:10 0.000591142
5 *44:10 *237:B 3.26735e-05
6 *44:10 *239:A2 0
7 *44:10 *239:B1 9.3062e-06
8 *44:10 *247:B1 0
9 *44:10 *49:10 0
10 *209:C *44:10 0
11 *209:D *44:10 0
12 *222:A1 *222:B1 8.65905e-05
13 *222:A2 *221:C 2.75229e-05
14 *222:A2 *222:B1 1.91597e-05
15 *225:A2 *44:10 0
16 *33:12 *44:10 0.000314431
17 *35:10 *44:10 7.23533e-05
18 *36:12 *221:C 8.80347e-07
19 *40:19 *44:10 0
*RES
1 *220:X *44:10 12.59 
2 *44:10 *222:B1 4.045 
3 *44:10 *221:C 2.11 
*END

*D_NET *45 0.00196088
*CONN
*I *240:A1 I *D sky130_fd_sc_hd__a22o_1
*I *228:B1 I *D sky130_fd_sc_hd__a21oi_1
*I *223:A_N I *D sky130_fd_sc_hd__and2b_1
*I *221:X O *D sky130_fd_sc_hd__and3_1
*CAP
1 *240:A1 9.8145e-05
2 *228:B1 0
3 *223:A_N 9.61831e-05
4 *221:X 0.000192869
5 *45:16 0.000341675
6 *45:10 0.000536506
7 *223:A_N *223:B 8.65905e-05
8 *223:A_N *228:A2 4.99619e-05
9 *240:A1 *237:B 0
10 *240:A1 *240:B2 3.47837e-05
11 *45:10 *237:B 0
12 *45:16 *237:A 0.000315527
13 *36:12 *45:10 0.000208636
*RES
1 *221:X *45:10 7.32 
2 *45:10 *45:16 6.695 
3 *45:16 *223:A_N 3.445 
4 *45:16 *228:B1 1.6 
5 *45:10 *240:A1 5.235 
*END

*D_NET *46 0.00064541
*CONN
*I *228:A1 I *D sky130_fd_sc_hd__a21oi_1
*I *223:B I *D sky130_fd_sc_hd__and2b_1
*I *222:X O *D sky130_fd_sc_hd__a21o_1
*CAP
1 *228:A1 2.48772e-05
2 *223:B 9.57891e-05
3 *222:X 5.06588e-05
4 *46:8 0.000171325
5 *223:B *228:A2 6.90876e-05
6 *228:A1 *240:B1 5.16418e-05
7 *46:8 *240:B1 9.54399e-05
8 *46:8 *50:23 0
9 *223:A_N *223:B 8.65905e-05
*RES
1 *222:X *46:8 4.725 
2 *46:8 *223:B 5.43 
3 *46:8 *228:A1 4.215 
*END

*D_NET *47 0.00024371
*CONN
*I *227:A I *D sky130_fd_sc_hd__xor2_1
*I *223:X O *D sky130_fd_sc_hd__and2b_1
*CAP
1 *227:A 7.52843e-05
2 *223:X 7.52843e-05
3 *227:A *227:B 3.293e-05
4 *227:A *228:A2 6.02119e-05
*RES
1 *223:X *227:A 4.7 
*END

*D_NET *48 0.00498265
*CONN
*I *239:A2 I *D sky130_fd_sc_hd__a31o_1
*I *226:B I *D sky130_fd_sc_hd__and3_1
*I *247:B1 I *D sky130_fd_sc_hd__a21oi_1
*I *224:X O *D sky130_fd_sc_hd__a31o_1
*CAP
1 *239:A2 0.000108491
2 *226:B 0.000173104
3 *247:B1 5.63055e-05
4 *224:X 0.00141945
5 *48:18 0.000277135
6 *48:16 0.00157567
7 *226:B *248:B 0.000119189
8 *239:A2 *239:A3 1.73877e-05
9 *239:A2 *239:B1 9.2741e-05
10 *239:A2 *240:B1 2.75145e-05
11 *239:A2 *50:23 0
12 *247:B1 *239:A3 2.75707e-05
13 *247:B1 *49:10 1.22676e-05
14 *48:16 *224:A1 1.47347e-05
15 *48:16 *229:B 0.000245599
16 *48:16 *239:B1 0.000349592
17 *48:16 *77:25 0.000133657
18 *48:16 *78:30 0
19 *48:16 *81:55 4.80285e-05
20 *48:18 *239:A3 2.37321e-05
21 *211:A *48:16 6.90876e-05
22 *216:A_N *48:16 5.05437e-05
23 *28:18 *48:16 0.000104426
24 *34:23 *48:16 3.64226e-05
25 *39:10 *48:16 0
26 *44:10 *239:A2 0
27 *44:10 *247:B1 0
*RES
1 *224:X *48:16 26.59 
2 *48:16 *48:18 0.87 
3 *48:18 *247:B1 4.725 
4 *48:18 *226:B 5.775 
5 *48:16 *239:A2 5.955 
*END

*D_NET *49 0.00108937
*CONN
*I *239:A3 I *D sky130_fd_sc_hd__a31o_1
*I *247:A2 I *D sky130_fd_sc_hd__a21oi_1
*I *226:C I *D sky130_fd_sc_hd__and3_1
*I *225:Y O *D sky130_fd_sc_hd__o21bai_1
*CAP
1 *239:A3 7.64859e-05
2 *247:A2 0
3 *226:C 6.55061e-05
4 *225:Y 0.000172031
5 *49:12 6.55061e-05
6 *49:10 0.000248517
7 *226:C *248:B 0.000110609
8 *225:A1 *49:10 2.75229e-05
9 *225:A2 *49:10 1.19928e-05
10 *225:B1_N *49:10 4.39911e-06
11 *226:A *226:C 9.53428e-06
12 *239:A1 *239:A3 9.34489e-05
13 *239:A1 *49:10 2.59981e-05
14 *239:A2 *239:A3 1.73877e-05
15 *247:A1 *226:C 2.75145e-05
16 *247:B1 *239:A3 2.75707e-05
17 *247:B1 *49:10 1.22676e-05
18 *43:10 *49:10 3.67779e-05
19 *43:14 *226:C 3.25676e-05
20 *44:10 *49:10 0
21 *48:18 *239:A3 2.37321e-05
*RES
1 *225:Y *49:10 6.12 
2 *49:10 *49:12 2 
3 *49:12 *226:C 3.265 
4 *49:12 *247:A2 1.6 
5 *49:10 *239:A3 5.745 
*END

*D_NET *50 0.00172701
*CONN
*I *228:A2 I *D sky130_fd_sc_hd__a21oi_1
*I *227:B I *D sky130_fd_sc_hd__xor2_1