*SPEF "ieee 1481-1999"
*DESIGN "mult4_SarsaNStepsRuido_e9_SARSA_RUIDO_e9_SARSA_RUIDO_e9_SARSA_RUIDO_e9"
*DATE "18:45:27 Tuesday September 16, 2025"
*VENDOR "The OpenROAD Project"
*PROGRAM "OpenROAD"
*VERSION "edf00dff99f6c40d67a30c0e22a8191c5d2ed9d6"
*DESIGN_FLOW "NAME_SCOPE LOCAL" "PIN_CAP NONE"
*DIVIDER /
*DELIMITER :
*BUS_DELIMITER []
*T_UNIT 1 NS
*C_UNIT 1 PF
*R_UNIT 1 OHM
*L_UNIT 1 HENRY

*NAME_MAP
*1 A[0]
*2 A[1]
*3 A[2]
*4 A[3]
*5 B[0]
*6 B[1]
*7 B[2]
*8 B[3]
*9 net16
*10 P[1]
*11 P[2]
*12 P[3]
*13 P[4]
*14 P[5]
*15 P[6]
*16 P[7]
*19 _000_
*20 _001_
*21 _002_
*22 _003_
*23 _004_
*24 _005_
*25 _006_
*26 _007_
*27 _008_
*28 _009_
*29 _010_
*30 _011_
*31 _012_
*32 _013_
*33 _014_
*34 _015_
*35 _016_
*36 _017_
*37 _018_
*38 _019_
*39 _020_
*40 _021_
*41 _022_
*42 _023_
*43 _024_
*44 _025_
*45 _026_
*46 _027_
*47 _028_
*48 _029_
*49 _030_
*50 _031_
*51 _032_
*52 _033_
*53 _034_
*54 _035_
*55 _036_
*56 _037_
*57 _038_
*58 _039_
*59 _040_
*60 _041_
*61 _042_
*62 _043_
*63 _044_
*64 _045_
*65 _046_
*66 _047_
*67 _048_
*68 _049_
*69 net1
*70 net10
*71 net11
*72 net12
*73 net13
*74 net14
*75 net15
*76 net2
*77 net3
*78 net4
*79 net5
*80 net6
*81 net7
*82 net8
*83 net9
*84 FILLER_0_11
*85 FILLER_0_24
*86 FILLER_0_29
*87 FILLER_0_3
*88 FILLER_0_52
*89 FILLER_0_57
*90 FILLER_0_69
*91 FILLER_1_18
*92 FILLER_1_64
*93 FILLER_1_76
*94 FILLER_2_13
*95 FILLER_2_29
*96 FILLER_2_33
*97 FILLER_2_39
*98 FILLER_2_49
*99 FILLER_2_55
*100 FILLER_2_62
*101 FILLER_2_77
*102 FILLER_3_12
*103 FILLER_3_24
*104 FILLER_3_39
*105 FILLER_3_51
*106 FILLER_3_55
*107 FILLER_3_57
*108 FILLER_3_66
*109 FILLER_3_79
*110 FILLER_4_10
*111 FILLER_4_16
*112 FILLER_4_29
*113 FILLER_4_41
*114 FILLER_4_53
*115 FILLER_4_60
*116 FILLER_4_72
*117 FILLER_4_76
*118 FILLER_5_10
*119 FILLER_5_23
*120 FILLER_5_35
*121 FILLER_5_47
*122 FILLER_5_55
*123 FILLER_5_57
*124 FILLER_5_6
*125 FILLER_5_69
*126 FILLER_5_77
*127 FILLER_6_11
*128 FILLER_6_27
*129 FILLER_6_3
*130 FILLER_6_36
*131 FILLER_6_65
*132 FILLER_6_69
*133 FILLER_7_19
*134 FILLER_7_27
*135 FILLER_7_36
*136 FILLER_7_48
*137 FILLER_7_54
*138 FILLER_7_64
*139 FILLER_7_7
*140 FILLER_7_73
*141 FILLER_8_26
*142 FILLER_8_29
*143 FILLER_8_3
*144 FILLER_8_36
*145 FILLER_8_48
*146 FILLER_8_65
*147 FILLER_8_73
*148 FILLER_9_18
*149 FILLER_9_26
*150 FILLER_9_29
*151 FILLER_9_44
*152 FILLER_9_49
*153 FILLER_9_55
*154 FILLER_9_57
*155 FILLER_9_6
*156 FILLER_9_61
*157 FILLER_9_73
*158 PHY_EDGE_ROW_0_Left_10
*159 PHY_EDGE_ROW_0_Right_0
*160 PHY_EDGE_ROW_1_Left_11
*161 PHY_EDGE_ROW_1_Right_1
*162 PHY_EDGE_ROW_2_Left_12
*163 PHY_EDGE_ROW_2_Right_2
*164 PHY_EDGE_ROW_3_Left_13
*165 PHY_EDGE_ROW_3_Right_3
*166 PHY_EDGE_ROW_4_Left_14
*167 PHY_EDGE_ROW_4_Right_4
*168 PHY_EDGE_ROW_5_Left_15
*169 PHY_EDGE_ROW_5_Right_5
*170 PHY_EDGE_ROW_6_Left_16
*171 PHY_EDGE_ROW_6_Right_6
*172 PHY_EDGE_ROW_7_Left_17
*173 PHY_EDGE_ROW_7_Right_7
*174 PHY_EDGE_ROW_8_Left_18
*175 PHY_EDGE_ROW_8_Right_8
*176 PHY_EDGE_ROW_9_Left_19
*177 PHY_EDGE_ROW_9_Right_9
*178 TAP_TAPCELL_ROW_0_20
*179 TAP_TAPCELL_ROW_0_21
*180 TAP_TAPCELL_ROW_1_22
*181 TAP_TAPCELL_ROW_2_23
*182 TAP_TAPCELL_ROW_3_24
*183 TAP_TAPCELL_ROW_4_25
*184 TAP_TAPCELL_ROW_5_26
*185 TAP_TAPCELL_ROW_6_27
*186 TAP_TAPCELL_ROW_7_28
*187 TAP_TAPCELL_ROW_8_29
*188 TAP_TAPCELL_ROW_9_30
*189 TAP_TAPCELL_ROW_9_31
*190 _050_
*191 _051_
*192 _052_
*193 _053_
*194 _054_
*195 _055_
*196 _056_
*197 _057_
*198 _058_
*199 _059_
*200 _060_
*201 _061_
*202 _062_
*203 _063_
*204 _064_
*205 _065_
*206 _066_
*207 _067_
*208 _068_
*209 _069_
*210 _070_
*211 _071_
*212 _072_
*213 _073_
*214 _074_
*215 _075_
*216 _076_
*217 _077_
*218 _078_
*219 _079_
*220 _080_
*221 _081_
*222 _082_
*223 _083_
*224 _084_
*225 _085_
*226 _086_
*227 _087_
*228 _088_
*229 _089_
*230 _090_
*231 _091_
*232 _092_
*233 _093_
*234 _094_
*235 _095_
*236 _096_
*237 _097_
*238 _098_
*239 _099_
*240 _100_
*241 _101_
*242 _102_
*243 _103_
*244 _104_
*245 _105_
*246 _106_
*247 input1
*248 input2
*249 input3
*250 input4
*251 input5
*252 input6
*253 input7
*254 input8
*255 mult4_SarsaNStepsRuido_e9_SARSA_RUIDO_e9_SARSA_RUIDO_e9_SARSA_RUIDO_e9_16
*256 output10
*257 output11
*258 output12
*259 output13
*260 output14
*261 output15
*262 output9

*PORTS
A[0] I
A[1] I
A[2] I
A[3] I
B[0] I
B[1] I
B[2] I
B[3] I
P[0] O
P[1] O
P[2] O
P[3] O
P[4] O
P[5] O
P[6] O
P[7] O

*D_NET *1 0.000659457
*CONN
*P A[0] I
*I *247:A I *D sky130_fd_sc_hd__clkbuf_2
*CAP
1 A[0] 0.000277748
2 *247:A 0.000277748
3 *247:A *248:A 2.69997e-05
4 *247:A *253:A 2.69997e-05
5 *247:A *69:12 4.99619e-05
*RES
1 A[0] *247:A 7.4343 
*END

*D_NET *2 0.000543312
*CONN
*P A[1] I
*I *248:A I *D sky130_fd_sc_hd__dlymetal6s2s_1
*CAP
1 A[1] 0.000244656
2 *248:A 0.000244656
3 *248:A P[0] 2.69997e-05
4 *247:A *248:A 2.69997e-05
*RES
1 A[1] *248:A 6.8343 
*END

*D_NET *3 0.00141827
*CONN
*P A[2] I
*I *249:A I *D sky130_fd_sc_hd__clkbuf_2
*CAP
1 A[2] 0.00061224
2 *249:A 0.00061224
3 *249:A *201:A 8.64421e-05
4 *249:A *252:A 0
5 *249:A *29:12 1.33293e-05
6 *249:A *77:14 2.11084e-05
7 *249:A *80:41 7.2911e-05
*RES
1 A[2] *249:A 13.89 
*END

*D_NET *4 0.000642389
*CONN
*P A[3] I
*I *250:A I *D sky130_fd_sc_hd__buf_1
*CAP
1 A[3] 0.000286673
2 *250:A 0.000286673
3 *250:A *254:A 2.85068e-05
4 *250:A *78:12 4.05358e-05
5 *250:A *78:23 0
*RES
1 A[3] *250:A 6.63177 
*END

*D_NET *5 0.00130977
*CONN
*P B[0] I
*I *251:A I *D sky130_fd_sc_hd__dlymetal6s2s_1
*CAP
1 B[0] 0.000450935
2 *251:A 0.000450935
3 *251:A P[1] 0
4 *251:A *193:B 7.99972e-05
5 *251:A *198:A 0.000203762
6 *251:A *199:S 4.66108e-05
7 *251:A *252:A 0
8 *251:A *76:28 3.09233e-05
9 *251:A *79:8 4.66108e-05
*RES
1 B[0] *251:A 12.39 
*END

*D_NET *6 0.000818819
*CONN
*P B[1] I
*I *252:A I *D sky130_fd_sc_hd__dlymetal6s2s_1
*CAP
1 B[1] 0.000385264
2 *252:A 0.000385264
3 *252:A *198:A 0
4 *252:A *80:6 4.82919e-05
5 *249:A *252:A 0
6 *251:A *252:A 0
*RES
1 B[1] *252:A 10.35 
*END

*D_NET *7 0.000627539
*CONN
*P B[2] I
*I *253:A I *D sky130_fd_sc_hd__buf_1
*CAP
1 B[2] 0.00030027
2 *253:A 0.00030027
3 *253:A *254:A 0
4 *253:A *81:28 0
5 *247:A *253:A 2.69997e-05
*RES
1 B[2] *253:A 7.5993 
*END

*D_NET *8 0.000586994
*CONN
*P B[3] I
*I *254:A I *D sky130_fd_sc_hd__clkbuf_2
*CAP
1 B[3] 0.000279244
2 *254:A 0.000279244
3 *250:A *254:A 2.85068e-05
4 *253:A *254:A 0
*RES
1 B[3] *254:A 7.1793 
*END

*D_NET *9 0.000552297
*CONN
*P P[0] O
*I *255:LO O *D sky130_fd_sc_hd__conb_1
*CAP
1 P[0] 0.000262649
2 *255:LO 0.000262649
3 *248:A P[0] 2.69997e-05
*RES
1 *255:LO P[0] 6.8343 
*END

*D_NET *10 0.000818001
*CONN
*P P[1] O
*I *262:X O *D sky130_fd_sc_hd__buf_2
*CAP
1 P[1] 0.000395136
2 *262:X 0.000395136
3 P[1] *80:17 2.77283e-05
4 *251:A P[1] 0
*RES
1 *262:X P[1] 10.185 
*END

*D_NET *11 0.000465086
*CONN
*P P[2] O
*I *256:X O *D sky130_fd_sc_hd__buf_2
*CAP
1 P[2] 0.000232543
2 *256:X 0.000232543
3 P[2] P[3] 0
*RES
1 *256:X P[2] 4.90503 
*END

*D_NET *12 0.000599802
*CONN
*P P[3] O
*I *257:X O *D sky130_fd_sc_hd__buf_2
*CAP
1 P[3] 0.000269556
2 *257:X 0.000269556
3 P[3] P[4] 0
4 P[3] *257:A 6.06899e-05
5 P[2] P[3] 0
*RES
1 *257:X P[3] 5.92503 
*END

*D_NET *13 0.000456287
*CONN
*P P[4] O
*I *258:X O *D sky130_fd_sc_hd__buf_2
*CAP
1 P[4] 0.000222288
2 *258:X 0.000222288
3 P[4] P[5] 0
4 P[4] *258:A 1.17114e-05
5 P[3] P[4] 0
*RES
1 *258:X P[4] 4.90503 
*END

*D_NET *14 0.000584359
*CONN
*P P[5] O
*I *259:X O *D sky130_fd_sc_hd__buf_2
*CAP
1 P[5] 0.000292179
2 *259:X 0.000292179
3 P[5] *259:A 0
4 P[4] P[5] 0
*RES
1 *259:X P[5] 5.92503 
*END

*D_NET *15 0.000894056
*CONN
*P P[6] O
*I *260:X O *D sky130_fd_sc_hd__buf_2
*CAP
1 P[6] 0.000447028
2 *260:X 0.000447028
*RES
1 *260:X P[6] 11.55 
*END

*D_NET *16 0.00157455
*CONN
*P P[7] O
*I *261:X O *D sky130_fd_sc_hd__buf_2
*CAP
1 P[7] 0.000724146
2 *261:X 0.000724146
3 P[7] *242:A 7.08493e-05
4 P[7] *242:B 7.68414e-06
5 P[7] *260:A 4.77273e-05
*RES
1 *261:X P[7] 14.76 
*END

*D_NET *19 0.000413696
*CONN
*I *192:A2 I *D sky130_fd_sc_hd__o211a_1
*I *190:Y O *D sky130_fd_sc_hd__inv_2
*CAP
1 *192:A2 0.000180528
2 *190:Y 0.000180528
3 *192:A2 *213:A 5.53249e-06
4 *192:A2 *213:B 4.71081e-05
*RES
1 *190:Y *192:A2 9.63 
*END

*D_NET *20 0.00144034
*CONN
*I *193:A I *D sky130_fd_sc_hd__nor2_1
*I *191:Y O *D sky130_fd_sc_hd__a21oi_1
*CAP
1 *193:A 0.000381895
2 *191:Y 0.000381895
3 *193:A *190:A 0
4 *193:A *193:B 5.65627e-05
5 *193:A *196:B 8.53113e-06
6 *193:A *198:B 1.85674e-05
7 *193:A *213:B 3.47837e-05
8 *193:A *262:A 5.70727e-05
9 *193:A *76:14 6.90876e-05
10 *193:A *76:28 0.000272984
11 *193:A *80:17 0.000158965
*RES
1 *191:Y *193:A 13.98 
*END

*D_NET *21 0.000755225
*CONN
*I *193:B I *D sky130_fd_sc_hd__nor2_1
*I *192:X O *D sky130_fd_sc_hd__o211a_1
*CAP
1 *193:B 0.000109094
2 *192:X 0.000109094
3 *193:B *196:B 4.9968e-05
4 *193:B *76:28 0.000189879
5 *193:B *79:8 3.57349e-05
6 *193:B *79:10 0.000124895
7 *193:A *193:B 5.65627e-05
8 *251:A *193:B 7.99972e-05
*RES
1 *192:X *193:B 10.83 
*END

*D_NET *22 0.00161428
*CONN
*I *202:A I *D sky130_fd_sc_hd__xnor2_1
*I *206:A I *D sky130_fd_sc_hd__nand4_2
*I *207:B2 I *D sky130_fd_sc_hd__a22o_1
*I *194:Y O *D sky130_fd_sc_hd__nand2_1
*CAP
1 *202:A 0.000192303
2 *206:A 0.00014733
3 *207:B2 0
4 *194:Y 2.53395e-05
5 *22:12 0.000234056
6 *22:6 0.000304368
7 *202:A *194:A 0.000114024
8 *202:A *202:B 0.00011964
9 *202:A *256:A 0
10 *202:A *49:10 0.000164874
11 *206:A *216:A_N 0
12 *206:A *216:B 0
13 *206:A *217:A2 0
14 *206:A *23:30 3.13459e-05
15 *206:A *34:12 0.000136877
16 *206:A *41:10 5.05521e-05
17 *22:6 *194:A 1.08758e-05
18 *22:6 *222:B1 2.16833e-05
19 *22:12 *23:30 5.53249e-06
20 *22:12 *23:32 3.69124e-05
21 *22:12 *77:23 1.85674e-05
*RES
1 *194:Y *22:6 2.05 
2 *22:6 *22:12 3.74 
3 *22:12 *207:B2 3.6 
4 *22:12 *206:A 6.795 
5 *22:6 *202:A 5.86 
*END

*D_NET *23 0.00404589
*CONN
*I *206:B I *D sky130_fd_sc_hd__nand4_2
*I *207:A1 I *D sky130_fd_sc_hd__a22o_1
*I *200:A I *D sky130_fd_sc_hd__nor2_1
*I *201:A I *D sky130_fd_sc_hd__xor2_1
*I *195:Y O *D sky130_fd_sc_hd__nand2_2
*CAP
1 *206:B 0
2 *207:A1 0
3 *200:A 0
4 *201:A 0.000142068
5 *195:Y 0.000585243
6 *23:32 0.000263947
7 *23:30 0.000245782
8 *23:24 0.000709146
9 *201:A *200:B 2.54824e-05
10 *201:A *201:B 4.22574e-05
11 *201:A *77:14 5.46841e-05
12 *23:24 *204:A 0.0001249
13 *23:24 *206:C 1.42692e-05
14 *23:24 *207:A2 3.18911e-05
15 *23:24 *214:B 9.22294e-06
16 *23:24 *214:C 0.000161893
17 *23:24 *215:A1 5.34747e-05
18 *23:24 *215:A2 3.50118e-05
19 *23:24 *215:B1_N 8.49205e-05
20 *23:24 *31:6 0.000435377
21 *23:24 *40:10 2.61115e-05
22 *23:24 *40:21 5.18317e-06
23 *23:24 *41:10 4.11718e-05
24 *23:24 *42:16 0.000536079
25 *23:30 *207:A2 7.98542e-05
26 *23:30 *33:8 2.97746e-05
27 *23:30 *34:12 0.00013521
28 *23:32 *207:A2 9.09788e-06
29 *23:32 *77:14 3.60024e-06
30 *206:A *23:30 3.13459e-05
31 *249:A *201:A 8.64421e-05
32 *22:12 *23:30 5.53249e-06
33 *22:12 *23:32 3.69124e-05
*RES
1 *195:Y *23:24 19.79 
2 *23:24 *23:30 4.85 
3 *23:30 *23:32 1.89 
4 *23:32 *201:A 6.795 
5 *23:32 *200:A 3.6 
6 *23:30 *207:A1 3.6 
7 *23:24 *206:B 1.6 
*END

*D_NET *24 0.000865958
*CONN
*I *199:S I *D sky130_fd_sc_hd__mux2_1
*I *196:X O *D sky130_fd_sc_hd__and3_1
*CAP
1 *199:S 0.000269891
2 *196:X 0.000269891
3 *199:S *79:6 4.60584e-05
4 *199:S *79:8 2.16917e-05
5 *199:S *79:71 0.000211815
6 *251:A *199:S 4.66108e-05
*RES
1 *196:X *199:S 8.165 
*END

*D_NET *25 0.000845528
*CONN
*I *212:B I *D sky130_fd_sc_hd__and4b_1
*I *215:B1_N I *D sky130_fd_sc_hd__o21bai_1
*I *197:X O *D sky130_fd_sc_hd__and4_1
*CAP
1 *212:B 0.000126949
2 *215:B1_N 1.8095e-05
3 *197:X 7.53332e-05
4 *25:8 0.000220377
5 *212:B *215:A1 0
6 *212:B *69:19 4.82863e-05
7 *212:B *77:46 9.59969e-05
8 *212:B *82:42 4.43871e-06
9 *212:B *82:48 2.59981e-05
10 *215:B1_N *215:A2 8.49205e-05
11 *25:8 *77:46 6.02123e-05
12 *23:24 *215:B1_N 8.49205e-05
*RES
1 *197:X *25:8 4.98 
2 *25:8 *215:B1_N 4.395 
3 *25:8 *212:B 6.195 
*END

*D_NET *26 0.00114338
*CONN
*I *199:A0 I *D sky130_fd_sc_hd__mux2_1
*I *198:Y O *D sky130_fd_sc_hd__nand2_1
*CAP
1 *199:A0 0.000392912
2 *198:Y 0.000392912
3 *199:A0 *80:6 0.000188517
4 *199:A0 *80:41 0.000156376
5 *199:A0 *80:52 1.26626e-05
*RES
1 *198:Y *199:A0 13.08 
*END

*D_NET *27 0.000418793
*CONN
*I *200:B I *D sky130_fd_sc_hd__nor2_1
*I *201:B I *D sky130_fd_sc_hd__xor2_1
*I *199:X O *D sky130_fd_sc_hd__mux2_1
*CAP
1 *200:B 4.95157e-05
2 *201:B 5.00318e-05
3 *199:X 0
4 *27:6 9.95474e-05
5 *200:B *77:23 2.68526e-05
6 *200:B *79:71 2.68526e-05
7 *200:B *80:41 2.09211e-05
8 *200:B *80:52 1.5996e-05
9 *201:B *80:41 6.13356e-05
10 *201:A *200:B 2.54824e-05
11 *201:A *201:B 4.22574e-05
*RES
1 *199:X *27:6 3.6 
2 *27:6 *201:B 4.98 
3 *27:6 *200:B 4.92 
*END

*D_NET *28 0.000484418
*CONN
*I *222:B1 I *D sky130_fd_sc_hd__a31o_1
*I *200:Y O *D sky130_fd_sc_hd__nor2_1
*CAP
1 *222:B1 5.39018e-05
2 *200:Y 5.39018e-05
3 *222:B1 *194:A 8.65961e-05
4 *222:B1 *77:23 3.24942e-05
5 *222:B1 *79:71 0.000235841
6 *22:6 *222:B1 2.16833e-05
*RES
1 *200:Y *222:B1 5.375 
*END

*D_NET *29 0.00105123
*CONN
*I *202:B I *D sky130_fd_sc_hd__xnor2_1
*I *222:A3 I *D sky130_fd_sc_hd__a31o_1
*I *201:X O *D sky130_fd_sc_hd__xor2_1
*CAP
1 *202:B 8.44717e-05
2 *222:A3 0
3 *201:X 0.000228806
4 *29:12 0.000313277
5 *29:12 *222:A2 0.000166806
6 *29:12 *77:14 0.0001249
7 *202:A *202:B 0.00011964
8 *249:A *29:12 1.33293e-05
*RES
1 *201:X *29:12 9.155 
2 *29:12 *222:A3 1.6 
3 *29:12 *202:B 3.43 
*END

*D_NET *30 0.00516969
*CONN
*I *243:A1 I *D sky130_fd_sc_hd__a21oi_1
*I *238:C I *D sky130_fd_sc_hd__and3_1
*I *208:A_N I *D sky130_fd_sc_hd__nand3b_1
*I *209:B1_N I *D sky130_fd_sc_hd__a21bo_1
*I *203:Y O *D sky130_fd_sc_hd__nand2_1
*CAP
1 *243:A1 0.000268902
2 *238:C 1.31524e-05
3 *208:A_N 0.000240154
4 *209:B1_N 0
5 *203:Y 6.219e-05
6 *30:40 0.000394945
7 *30:22 0.00114679
8 *30:10 0.00108171
9 *208:A_N *208:B 9.80032e-06
10 *208:A_N *208:C 0.000106145
11 *208:A_N *218:A 0
12 *208:A_N *33:12 4.82919e-05
13 *243:A1 *238:A 1.34361e-05
14 *243:A1 *240:A 5.34747e-05
15 *243:A1 *243:A2 0.000166153
16 *243:A1 *244:B1 5.4155e-06
17 *243:A1 *65:6 1.34503e-05
18 *243:A1 *78:12 5.83121e-06
19 *243:A1 *78:23 9.45757e-05
20 *30:10 *226:D 9.98831e-05
21 *30:10 *78:31 7.06865e-05
22 *30:22 *226:C 4.66108e-05
23 *30:22 *228:A 0.000343637
24 *30:22 *228:B 1.52352e-05
25 *30:22 *229:B_N 0.000203178
26 *30:22 *239:A1 2.75145e-05
27 *30:22 *239:A2 1.61831e-05
28 *30:22 *239:B1 4.82863e-05
29 *30:22 *52:6 3.43427e-05
30 *30:40 *226:A 0.000103974
31 *30:40 *226:B 2.23407e-05
32 *30:40 *238:A 5.21046e-05
33 *30:40 *78:23 6.28498e-05
34 *30:40 *78:25 0.000269199
35 *30:40 *78:31 2.92496e-05
*RES
1 *203:Y *30:10 4.92 
2 *30:10 *30:22 14.42 
3 *30:22 *209:B1_N 1.6 
4 *30:22 *208:A_N 5.53 
5 *30:10 *30:40 4.185 
6 *30:40 *238:C 3.765 
7 *30:40 *243:A1 9.66 
*END

*D_NET *31 0.00148584
*CONN
*I *207:A2 I *D sky130_fd_sc_hd__a22o_1
*I *206:C I *D sky130_fd_sc_hd__nand4_2
*I *204:X O *D sky130_fd_sc_hd__and2_1
*CAP
1 *207:A2 0.000105214
2 *206:C 1.71042e-05
3 *204:X 0.00011986
4 *31:6 0.000242178
5 *207:A2 *206:D 7.7379e-05
6 *207:A2 *33:8 8.30853e-06
7 *207:A2 *41:10 3.6355e-05
8 *31:6 *41:10 0.000195075
9 *31:6 *42:16 0.000113878
10 *23:24 *206:C 1.42692e-05
11 *23:24 *207:A2 3.18911e-05
12 *23:24 *31:6 0.000435377
13 *23:30 *207:A2 7.98542e-05
14 *23:32 *207:A2 9.09788e-06
*RES
1 *204:X *31:6 5.845 
2 *31:6 *206:C 1.96 
3 *31:6 *207:A2 8.195 
*END

*D_NET *32 0.000895049
*CONN
*I *207:B1 I *D sky130_fd_sc_hd__a22o_1
*I *206:D I *D sky130_fd_sc_hd__nand4_2
*I *205:X O *D sky130_fd_sc_hd__and2_1
*CAP
1 *207:B1 9.63584e-05
2 *206:D 0.000100016
3 *205:X 9.24663e-05
4 *32:6 0.000288841
5 *206:D *214:C 8.99667e-05
6 *206:D *33:8 7.98745e-06
7 *207:B1 *34:12 8.81747e-05
8 *32:6 *34:12 5.83121e-06
9 *32:6 *80:58 4.80285e-05
10 *207:A2 *206:D 7.7379e-05
*RES
1 *205:X *32:6 3.085 
2 *32:6 *206:D 7.745 
3 *32:6 *207:B1 3.445 
*END

*D_NET *33 0.00318467
*CONN
*I *233:A1 I *D sky130_fd_sc_hd__a21oi_1
*I *232:A I *D sky130_fd_sc_hd__nand3_1
*I *208:B I *D sky130_fd_sc_hd__nand3b_1
*I *209:A1 I *D sky130_fd_sc_hd__a21bo_1
*I *206:Y O *D sky130_fd_sc_hd__nand4_2
*CAP
1 *233:A1 0.000176172
2 *232:A 0
3 *208:B 0.000129267
4 *209:A1 0
5 *206:Y 0.000295488
6 *33:38 0.000515552
7 *33:12 0.00014808
8 *33:8 0.00065368
9 *208:B *208:C 0.000266881
10 *208:B *219:A2 0
11 *208:B *35:10 1.17409e-05
12 *208:B *36:6 0.000162311
13 *233:A1 *233:A2 0.000158965
14 *233:A1 *233:B1 3.80633e-06
15 *233:A1 *56:15 4.9562e-05
16 *33:8 *34:12 0.000266933
17 *33:38 *232:C 9.53428e-06
18 *33:38 *34:12 4.1652e-06
19 *33:38 *56:6 0.00011964
20 *33:38 *56:15 0.000108732
21 *206:D *33:8 7.98745e-06
22 *207:A2 *33:8 8.30853e-06
23 *208:A_N *208:B 9.80032e-06
24 *208:A_N *33:12 4.82919e-05
25 *23:30 *33:8 2.97746e-05
*RES
1 *206:Y *33:8 9.825 
2 *33:8 *33:12 2.45 
3 *33:12 *209:A1 1.6 
4 *33:12 *208:B 5.35 
5 *33:8 *33:38 7.985 
6 *33:38 *232:A 1.6 
7 *33:38 *233:A1 4.495 
*END

*D_NET *34 0.0020869
*CONN
*I *208:C I *D sky130_fd_sc_hd__nand3b_1
*I *209:A2 I *D sky130_fd_sc_hd__a21bo_1
*I *207:X O *D sky130_fd_sc_hd__a22o_1
*CAP
1 *208:C 5.70409e-05
2 *209:A2 0
3 *207:X 0.000479476
4 *34:12 0.000536517
5 *208:C *35:10 3.64998e-06
6 *34:12 *216:A_N 0
7 *34:12 *217:A2 0
8 *34:12 *35:10 0
9 *206:A *34:12 0.000136877
10 *207:B1 *34:12 8.81747e-05
11 *208:A_N *208:C 0.000106145
12 *208:B *208:C 0.000266881
13 *23:30 *34:12 0.00013521
14 *32:6 *34:12 5.83121e-06
15 *33:8 *34:12 0.000266933
16 *33:38 *34:12 4.1652e-06
*RES
1 *207:X *34:12 14.93 
2 *34:12 *209:A2 1.6 
3 *34:12 *208:C 4.15 
*END

*D_NET *35 0.00196488
*CONN
*I *219:A1 I *D sky130_fd_sc_hd__a21oi_1
*I *218:A I *D sky130_fd_sc_hd__and3_1
*I *233:A2 I *D sky130_fd_sc_hd__a21oi_1
*I *232:B I *D sky130_fd_sc_hd__nand3_1
*I *208:Y O *D sky130_fd_sc_hd__nand3b_1
*CAP
1 *219:A1 0.000158226
2 *218:A 2.08101e-05
3 *233:A2 0.000184596
4 *232:B 1.18167e-05
5 *208:Y 0
6 *35:36 0.00021041
7 *35:10 0.000520837
8 *35:4 0.000355799
9 *219:A1 *218:C 3.49632e-05
10 *219:A1 *219:A2 8.01016e-06
11 *219:A1 *219:B1 0.000114024
12 *219:A1 *36:6 1.0124e-05
13 *233:A2 *231:A 7.92545e-05
14 *233:A2 *233:B1 4.00541e-06
15 *233:A2 *56:15 5.05437e-05
16 *233:A2 *59:10 1.03755e-05
17 *35:10 *36:6 1.0124e-05
18 *35:10 *44:10 0
19 *35:10 *45:10 0
20 *35:10 *59:10 0
21 *35:36 *36:6 6.60261e-06
22 *208:A_N *218:A 0
23 *208:B *35:10 1.17409e-05
24 *208:C *35:10 3.64998e-06
25 *233:A1 *233:A2 0.000158965
26 *34:12 *35:10 0
*RES
1 *208:Y *35:4 1.6 
2 *35:4 *35:10 6.1775 
3 *35:10 *232:B 3.8325 
4 *35:10 *233:A2 7.1625 
5 *35:4 *35:36 0.45 
6 *35:36 *218:A 1.96 
7 *35:36 *219:A1 3.775 
*END

*D_NET *36 0.00102407
*CONN
*I *218:B I *D sky130_fd_sc_hd__and3_1
*I *219:A2 I *D sky130_fd_sc_hd__a21oi_1
*I *209:X O *D sky130_fd_sc_hd__a21bo_1
*CAP
1 *218:B 0
2 *219:A2 8.01497e-05
3 *209:X 0.000253873
4 *36:6 0.000334023
5 *219:A2 *218:C 3.49632e-05
6 *219:A2 *219:B1 8.65961e-05
7 *219:A2 *220:A 1.61831e-05
8 *219:A2 *220:B 0
9 *219:A2 *45:10 2.11084e-05
10 *208:B *219:A2 0
11 *208:B *36:6 0.000162311
12 *219:A1 *219:A2 8.01016e-06
13 *219:A1 *36:6 1.0124e-05
14 *35:10 *36:6 1.0124e-05
15 *35:36 *36:6 6.60261e-06
*RES
1 *209:X *36:6 4.81 
2 *36:6 *219:A2 3.61 
3 *36:6 *218:B 1.6 
*END

*D_NET *37 0.00320775
*CONN
*I *212:A_N I *D sky130_fd_sc_hd__and4b_1
*I *228:A I *D sky130_fd_sc_hd__xnor2_1
*I *239:A1 I *D sky130_fd_sc_hd__a21oi_1
*I *215:A1 I *D sky130_fd_sc_hd__o21bai_1
*I *210:X O *D sky130_fd_sc_hd__and4_1
*CAP
1 *212:A_N 3.48054e-05
2 *228:A 0.000123049
3 *239:A1 1.17533e-05
4 *215:A1 0.000210581
5 *210:X 9.88237e-05
6 *37:25 0.000349855
7 *37:8 0.000425633
8 *37:6 0.000133629
9 *212:A_N *210:C 7.57202e-05
10 *215:A1 *78:31 0
11 *215:A1 *82:48 0
12 *228:A *228:B 3.68999e-05
13 *228:A *229:B_N 0.000201503
14 *228:A *239:A2 0.000649217
15 *228:A *239:B1 4.82863e-05
16 *239:A1 *239:A2 4.82863e-05
17 *37:6 *210:C 0.000237243
18 *37:25 *227:A_N 8.97486e-05
19 *37:25 *229:D 8.09021e-06
20 *37:25 *78:25 0
21 *37:25 *78:31 0
22 *37:25 *82:42 0
23 *212:B *215:A1 0
24 *23:24 *215:A1 5.34747e-05
25 *30:22 *228:A 0.000343637
26 *30:22 *239:A1 2.75145e-05
*RES
1 *210:X *37:6 3.775 
2 *37:6 *37:8 2 
3 *37:8 *215:A1 6.99 
4 *37:8 *37:25 5.93 
5 *37:25 *239:A1 2.05 
6 *37:25 *228:A 7.915 
7 *37:6 *212:A_N 2.395 
*END

*D_NET *38 0.000557493
*CONN
*I *215:A2 I *D sky130_fd_sc_hd__o21bai_1
*I *211:Y O *D sky130_fd_sc_hd__nand2_1
*CAP
1 *215:A2 0.000160759
2 *211:Y 0.000160759
3 *215:A2 *204:A 4.82919e-05
4 *215:A2 *204:B 0
5 *215:A2 *77:46 5.92191e-05
6 *215:A2 *82:67 8.53113e-06
7 *215:B1_N *215:A2 8.49205e-05
8 *23:24 *215:A2 3.50118e-05
*RES
1 *211:Y *215:A2 10.41 
*END

*D_NET *39 0.00247061
*CONN
*I *217:B1 I *D sky130_fd_sc_hd__a21o_1
*I *216:A_N I *D sky130_fd_sc_hd__and2b_1
*I *212:X O *D sky130_fd_sc_hd__and4b_1
*CAP
1 *217:B1 5.02701e-05
2 *216:A_N 0.00021154
3 *212:X 0.000762922
4 *39:8 0.00102473
5 *216:A_N *216:B 5.02217e-05
6 *216:A_N *217:A1 0.000118527
7 *216:A_N *217:A2 3.76518e-05
8 *216:A_N *221:B 0
9 *216:A_N *41:10 5.23362e-05
10 *39:8 *204:B 8.65905e-05
11 *39:8 *211:A 2.75229e-05
12 *39:8 *82:67 4.82919e-05
13 *206:A *216:A_N 0
14 *34:12 *216:A_N 0
*RES
1 *212:X *39:8 13.105 
2 *39:8 *216:A_N 9.785 
3 *39:8 *217:B1 2.41 
*END

*D_NET *40 0.0037697
*CONN
*I *228:B I *D sky130_fd_sc_hd__xnor2_1
*I *239:A2 I *D sky130_fd_sc_hd__a21oi_1
*I *214:A_N I *D sky130_fd_sc_hd__and3b_1
*I *213:X O *D sky130_fd_sc_hd__and4_1
*CAP
1 *228:B 3.77743e-05
2 *239:A2 0.000208364
3 *214:A_N 0
4 *213:X 0.000342
5 *40:21 0.000577085
6 *40:10 0.000672946
7 *239:A2 *229:A_N 0.000302981
8 *239:A2 *52:6 0.000163199
9 *40:10 *204:A 0
10 *40:10 *204:B 4.18603e-06
11 *40:10 *205:B 0.000465658
12 *40:21 *204:B 6.31804e-05
13 *40:21 *230:A 0.00013521
14 *40:21 *77:46 0
15 *228:A *228:B 3.68999e-05
16 *228:A *239:A2 0.000649217
17 *239:A1 *239:A2 4.82863e-05
18 *23:24 *40:10 2.61115e-05
19 *23:24 *40:21 5.18317e-06
20 *30:22 *228:B 1.52352e-05
21 *30:22 *239:A2 1.61831e-05
*RES
1 *213:X *40:10 9.735 
2 *40:10 *214:A_N 3.6 
3 *40:10 *40:21 8.225 
4 *40:21 *239:A2 8.62 
5 *40:21 *228:B 2.395 
*END

*D_NET *41 0.00204567
*CONN
*I *217:A1 I *D sky130_fd_sc_hd__a21o_1
*I *221:A I *D sky130_fd_sc_hd__xnor2_1
*I *214:X O *D sky130_fd_sc_hd__and3b_1
*CAP
1 *217:A1 2.81035e-05
2 *221:A 0.000153028
3 *214:X 0.000210643
4 *41:10 0.000391774
5 *217:A1 *217:A2 0.000110683
6 *41:10 *217:A2 5.4003e-05
7 *41:10 *42:16 0.000603416
8 *206:A *41:10 5.05521e-05
9 *207:A2 *41:10 3.6355e-05
10 *216:A_N *217:A1 0.000118527
11 *216:A_N *41:10 5.23362e-05
12 *23:24 *41:10 4.11718e-05
13 *31:6 *41:10 0.000195075
*RES
1 *214:X *41:10 10.185 
2 *41:10 *221:A 5.775 
3 *41:10 *217:A1 4.98 
*END

*D_NET *42 0.00390918
*CONN
*I *217:A2 I *D sky130_fd_sc_hd__a21o_1
*I *216:B I *D sky130_fd_sc_hd__and2b_1
*I *215:Y O *D sky130_fd_sc_hd__o21bai_1
*CAP
1 *217:A2 0.000107805
2 *216:B 0.000193212
3 *215:Y 0.000900606
4 *42:16 0.00120162
5 *206:A *216:B 0
6 *206:A *217:A2 0
7 *216:A_N *216:B 5.02217e-05
8 *216:A_N *217:A2 3.76518e-05
9 *217:A1 *217:A2 0.000110683
10 *23:24 *42:16 0.000536079
11 *31:6 *42:16 0.000113878
12 *34:12 *217:A2 0
13 *41:10 *217:A2 5.4003e-05
14 *41:10 *42:16 0.000603416
*RES
1 *215:Y *42:16 16.365 
2 *42:16 *216:B 6.555 
3 *42:16 *217:A2 6.255 
*END

*D_NET *43 0.000257541
*CONN
*I *221:B I *D sky130_fd_sc_hd__xnor2_1
*I *216:X O *D sky130_fd_sc_hd__and2b_1
*CAP
1 *221:B 0.00012877
2 *216:X 0.00012877
3 *221:B *245:A_N 0
4 *221:B *49:10 0
5 *216:A_N *221:B 0
*RES
1 *216:X *221:B 9.03 
*END

*D_NET *44 0.000844958
*CONN
*I *219:B1 I *D sky130_fd_sc_hd__a21oi_1
*I *218:C I *D sky130_fd_sc_hd__and3_1
*I *217:X O *D sky130_fd_sc_hd__a21o_1
*CAP
1 *219:B1 5.64378e-05
2 *218:C 8.18247e-06
3 *217:X 0.000198791
4 *44:10 0.000263411
5 *219:B1 *220:A 3.59311e-05
6 *219:B1 *220:B 1.16578e-05
7 *219:A1 *218:C 3.49632e-05
8 *219:A1 *219:B1 0.000114024
9 *219:A2 *218:C 3.49632e-05
10 *219:A2 *219:B1 8.65961e-05
11 *35:10 *44:10 0
*RES
1 *217:X *44:10 8.765 
2 *44:10 *218:C 1.93 
3 *44:10 *219:B1 3.43 
*END

*D_NET *45 0.00196497
*CONN
*I *220:A I *D sky130_fd_sc_hd__nor2_1
*I *241:B2 I *D sky130_fd_sc_hd__a221o_1
*I *236:B1 I *D sky130_fd_sc_hd__a21o_1
*I *218:X O *D sky130_fd_sc_hd__and3_1
*CAP
1 *220:A 0.000217949
2 *241:B2 0.000133083
3 *236:B1 0.000262529
4 *218:X 0
5 *45:10 0.000507277
6 *45:4 0.000329614
7 *220:A *220:B 9.8834e-05
8 *220:A *47:8 5.30673e-05
9 *236:B1 *231:A 0.000100329
10 *241:B2 *235:A 2.92496e-05
11 *241:B2 *241:A2 2.88519e-05
12 *241:B2 *58:12 2.49708e-05
13 *241:B2 *59:10 0.000100463
14 *45:10 *59:10 5.53249e-06
15 *219:A2 *220:A 1.61831e-05
16 *219:A2 *45:10 2.11084e-05
17 *219:B1 *220:A 3.59311e-05
18 *35:10 *45:10 0
*RES
1 *218:X *45:4 1.6 
2 *45:4 *45:10 3.575 
3 *45:10 *236:B1 7.875 
4 *45:10 *241:B2 6.24 
5 *45:4 *220:A 5.545 
*END

*D_NET *46 0.000228641
*CONN
*I *220:B I *D sky130_fd_sc_hd__nor2_1
*I *219:Y O *D sky130_fd_sc_hd__a21oi_1
*CAP
1 *220:B 5.90745e-05
2 *219:Y 5.90745e-05
3 *219:A2 *220:B 0
4 *219:B1 *220:B 1.16578e-05
5 *220:A *220:B 9.8834e-05
*RES
1 *219:Y *220:B 4.61 
*END

*D_NET *47 0.00116746
*CONN
*I *236:A1 I *D sky130_fd_sc_hd__a21o_1
*I *224:A I *D sky130_fd_sc_hd__xor2_1
*I *220:Y O *D sky130_fd_sc_hd__nor2_1
*CAP
1 *236:A1 6.80937e-05
2 *224:A 0.000142719
3 *220:Y 0.000154015
4 *47:8 0.000364828
5 *224:A *224:B 1.08758e-05
6 *224:A *50:34 0.000232258
7 *236:A1 *50:34 0.000141599
8 *220:A *47:8 5.30673e-05
*RES
1 *220:Y *47:8 5.43 
2 *47:8 *224:A 6.705 
3 *47:8 *236:A1 5.235 
*END

*D_NET *48 0.000719659
*CONN
*I *223:A_N I *D sky130_fd_sc_hd__and2b_1
*I *245:B I *D sky130_fd_sc_hd__and2b_1
*I *221:Y O *D sky130_fd_sc_hd__xnor2_1
*CAP
1 *223:A_N 0
2 *245:B 0.000111012
3 *221:Y 0.000149844
4 *48:8 0.000260856
5 *245:B *245:A_N 2.16917e-05
6 *48:8 *245:A_N 0.000161529
7 *48:8 *50:8 1.47256e-05
*RES
1 *221:Y *48:8 4.48 
2 *48:8 *245:B 3.445 
3 *48:8 *223:A_N 1.6 
*END

*D_NET *49 0.00184565
*CONN
*I *245:A_N I *D sky130_fd_sc_hd__and2b_1
*I *223:B I *D sky130_fd_sc_hd__and2b_1
*I *222:X O *D sky130_fd_sc_hd__a31o_1
*CAP
1 *245:A_N 9.24347e-05
2 *223:B 0
3 *222:X 0.000548224
4 *49:10 0.000640658
5 *245:A_N *246:A 0
6 *245:A_N *50:8 9.4087e-05
7 *49:10 *246:A 0
8 *49:10 *256:A 0.000122155
9 *202:A *49:10 0.000164874
10 *221:B *245:A_N 0
11 *221:B *49:10 0
12 *245:B *245:A_N 2.16917e-05
13 *48:8 *245:A_N 0.000161529
*RES
1 *222:X *49:10 11.355 
2 *49:10 *223:B 3.6 
3 *49:10 *245:A_N 6.045 
*END

*D_NET *50 0.00304495
*CONN
*I *241:A1 I *D sky130_fd_sc_hd__a221o_1
*I *236:A2 I *D sky130_fd_sc_hd__a21o_1
*I *224:B I *D sky130_fd_sc_hd__xor2_1
*I *246:A I *D sky130_fd_sc_hd__nor2_1
*I *223:X O *D sky130_fd_sc_hd__and2b_1
*CAP
1 *241:A1 0.000352381
2 *236:A2 0
3 *224:B 5.1863e-05
4 *246:A 0.000250858
5 *223:X 0.000139167
6 *50:34 0.00056518
7 *50:21 0.000464885
8 *50:8 0.000590248
9 *241:A1 *237:B 0
10 *241:A1 *241:A2 1.2818e-05
11 *241:A1 *66:10 0.000124007
12 *246:A *246:B 0
13 *246:A *257:A 0
14 *50:21 *257:A 0
15 *50:34 *258:A 0
16 *224:A *224:B 1.08758e-05
17 *224:A *50:34 0.000232258
18 *236:A1 *50:34 0.000141599
19 *245:A_N *246:A 0
20 *245:A_N *50:8 9.4087e-05
21 *48:8 *50:8 1.47256e-05
22 *49:10 *246:A 0
*RES
1 *223:X *50:8 5.43 
2 *50:8 *246:A 7.305 
3 *50:8 *50:21 3.165 
4 *50:21 *224:B 4.41 
5 *50:21 *50:34 4.695 
6 *50:34 *236:A2 3.6 
7 *50:34 *241:A1 9.135 
*END

*D_NET *51 0.000183616
*CONN
*I *243:B1 I *D sky130_fd_sc_hd__a21oi_1
*I *225:Y O *D sky130_fd_sc_hd__nand2_1
*CAP
1 *243:B1 1.11796e-05
2 *225:Y 1.11796e-05
3 *243:B1 *225:A 4.99619e-05
4 *243:B1 *244:B1 2.30292e-05
5 *243:B1 *65:6 8.8266e-05
*RES
1 *225:Y *243:B1 3.995 
*END

*D_NET *52 0.0015954
*CONN
*I *229:A_N I *D sky130_fd_sc_hd__and4bb_1
*I *227:A_N I *D sky130_fd_sc_hd__and3b_1
*I *226:X O *D sky130_fd_sc_hd__and4_1
*CAP
1 *229:A_N 0.000147429
2 *227:A_N 0.000111355
3 *226:X 0.000121624
4 *52:6 0.000380408
5 *227:A_N *229:D 0.000111884
6 *227:A_N *77:54 4.99619e-05
7 *227:A_N *78:25 0
8 *227:A_N *82:34 2.88519e-05
9 *52:6 *226:C 3.64998e-06
10 *52:6 *64:12 4.99619e-05
11 *239:A2 *229:A_N 0.000302981
12 *239:A2 *52:6 0.000163199
13 *30:22 *52:6 3.43427e-05
14 *37:25 *227:A_N 8.97486e-05
*RES
1 *226:X *52:6 4.12 
2 *52:6 *227:A_N 8.45 
3 *52:6 *229:A_N 4.465 
*END

*D_NET *53 0.00125409
*CONN
*I *230:A I *D sky130_fd_sc_hd__xor2_1
*I *227:X O *D sky130_fd_sc_hd__and3b_1
*CAP
1 *230:A 0.000448946
2 *227:X 0.000448946
3 *230:A *229:B_N 9.54399e-05
4 *230:A *230:B 0.000120186
5 *230:A *77:46 5.35969e-06
6 *40:21 *230:A 0.00013521
*RES
1 *227:X *230:A 14.085 
*END

*D_NET *54 0.000883975
*CONN
*I *230:B I *D sky130_fd_sc_hd__xor2_1
*I *229:B_N I *D sky130_fd_sc_hd__and4bb_1
*I *228:Y O *D sky130_fd_sc_hd__xnor2_1
*CAP
1 *230:B 5.32985e-05
2 *229:B_N 7.85351e-05
3 *228:Y 0
4 *54:6 0.000131834
5 *229:B_N *82:34 0
6 *230:B *82:34 0
7 *228:A *229:B_N 0.000201503
8 *230:A *229:B_N 9.54399e-05
9 *230:A *230:B 0.000120186
10 *30:22 *229:B_N 0.000203178
*RES
1 *228:Y *54:6 3.6 
2 *54:6 *229:B_N 6.555 
3 *54:6 *230:B 4.98 
*END

*D_NET *55 0.000116037
*CONN
*I *239:B1 I *D sky130_fd_sc_hd__a21oi_1
*I *229:X O *D sky130_fd_sc_hd__and4bb_1
*CAP
1 *239:B1 9.73191e-06
2 *229:X 9.73191e-06
3 *228:A *239:B1 4.82863e-05
4 *30:22 *239:B1 4.82863e-05
*RES
1 *229:X *239:B1 3.65 
*END

*D_NET *56 0.00158105
*CONN
*I *231:A I *D sky130_fd_sc_hd__inv_2
*I *233:B1 I *D sky130_fd_sc_hd__a21oi_1
*I *232:C I *D sky130_fd_sc_hd__nand3_1
*I *230:X O *D sky130_fd_sc_hd__xor2_1
*CAP
1 *231:A 6.20208e-05
2 *233:B1 1.02517e-05
3 *232:C 1.85694e-05
4 *230:X 0.00032458
5 *56:15 0.000184674
6 *56:6 0.000455551
7 *233:A1 *233:B1 3.80633e-06
8 *233:A1 *56:15 4.9562e-05
9 *233:A2 *231:A 7.92545e-05
10 *233:A2 *233:B1 4.00541e-06
11 *233:A2 *56:15 5.05437e-05
12 *236:B1 *231:A 0.000100329
13 *33:38 *232:C 9.53428e-06
14 *33:38 *56:6 0.00011964
15 *33:38 *56:15 0.000108732
*RES
1 *230:X *56:6 6.88 
2 *56:6 *232:C 1.96 
3 *56:6 *56:15 2.52 
4 *56:15 *233:B1 1.96 
5 *56:15 *231:A 3.445 
*END

*D_NET *57 0.000229928
*CONN
*I *241:A2 I *D sky130_fd_sc_hd__a221o_1
*I *231:Y O *D sky130_fd_sc_hd__inv_2
*CAP
1 *241:A2 8.55786e-05
2 *231:Y 8.55786e-05
3 *241:A2 *235:A 1.71013e-05
4 *241:A2 *237:B 0
5 *241:A1 *241:A2 1.2818e-05
6 *241:B2 *241:A2 2.88519e-05
*RES
1 *231:Y *241:A2 8.70375 
*END

*D_NET *58 0.0010633
*CONN