*SPEF "ieee 1481-1999"
*DESIGN "mult8_2bits_1op_e17675"
*DATE "15:06:40 Tuesday September 16, 2025"
*VENDOR "The OpenROAD Project"
*PROGRAM "OpenROAD"
*VERSION "edf00dff99f6c40d67a30c0e22a8191c5d2ed9d6"
*DESIGN_FLOW "NAME_SCOPE LOCAL" "PIN_CAP NONE"
*DIVIDER /
*DELIMITER :
*BUS_DELIMITER []
*T_UNIT 1 NS
*C_UNIT 1 PF
*R_UNIT 1 OHM
*L_UNIT 1 HENRY

*NAME_MAP
*1 A[0]
*2 A[1]
*3 A[2]
*4 A[3]
*5 A[4]
*6 A[5]
*7 A[6]
*8 A[7]
*9 B[0]
*10 B[1]
*11 B[2]
*12 B[3]
*13 B[4]
*14 B[5]
*15 B[6]
*16 B[7]
*17 P[0]
*18 P[10]
*19 P[11]
*20 P[12]
*21 P[13]
*22 P[14]
*23 P[15]
*24 P[1]
*25 P[2]
*26 P[3]
*27 P[4]
*28 P[5]
*29 P[6]
*30 P[7]
*31 P[8]
*32 P[9]
*35 _000_
*36 _001_
*37 _002_
*38 _003_
*39 _004_
*40 _005_
*41 _006_
*42 _007_
*43 _008_
*44 _009_
*45 _010_
*46 _011_
*47 _012_
*48 _013_
*49 _014_
*50 _015_
*51 _016_
*52 _017_
*53 _018_
*54 _019_
*55 _020_
*56 _021_
*57 _022_
*58 _023_
*59 _024_
*60 _025_
*61 _026_
*62 _027_
*63 _028_
*64 _029_
*65 _030_
*66 _031_
*67 _032_
*68 _033_
*69 _034_
*70 _035_
*71 _036_
*72 _037_
*73 _038_
*74 _039_
*75 _040_
*76 _041_
*77 _042_
*78 _043_
*79 _044_
*80 _045_
*81 _046_
*82 _047_
*83 _048_
*84 _049_
*85 _050_
*86 _051_
*87 _052_
*88 _053_
*89 _054_
*90 _055_
*91 _056_
*92 _057_
*93 _058_
*94 _059_
*95 _060_
*96 _061_
*97 _062_
*98 _063_
*99 _064_
*100 _065_
*101 _066_
*102 _067_
*103 _068_
*104 _069_
*105 _070_
*106 _071_
*107 _072_
*108 _073_
*109 _074_
*110 _075_
*111 _076_
*112 _077_
*113 _078_
*114 _079_
*115 _080_
*116 _081_
*117 _082_
*118 _083_
*119 _084_
*120 _085_
*121 _086_
*122 _087_
*123 _088_
*124 _089_
*125 _090_
*126 _091_
*127 _092_
*128 _093_
*129 _094_
*130 _095_
*131 _096_
*132 _097_
*133 _098_
*134 _099_
*135 _100_
*136 _101_
*137 _102_
*138 _103_
*139 _104_
*140 _105_
*141 _106_
*142 _107_
*143 _108_
*144 _109_
*145 _110_
*146 _111_
*147 _112_
*148 _113_
*149 _114_
*150 _115_
*151 _116_
*152 _117_
*153 _118_
*154 _119_
*155 _120_
*156 _121_
*157 _122_
*158 _123_
*159 _124_
*160 _125_
*161 _126_
*162 _127_
*163 _128_
*164 _129_
*165 _130_
*166 _131_
*167 _132_
*168 _133_
*169 _134_
*170 _135_
*171 _136_
*172 _137_
*173 _138_
*174 _139_
*175 _140_
*176 _141_
*177 _142_
*178 _143_
*179 _144_
*180 _145_
*181 _146_
*182 _147_
*183 _148_
*184 _149_
*185 _150_
*186 _151_
*187 _152_
*188 _153_
*189 _154_
*190 _155_
*191 _156_
*192 _157_
*193 _158_
*194 _159_
*195 _160_
*196 _161_
*197 _162_
*198 _163_
*199 _164_
*200 _165_
*201 _166_
*202 _167_
*203 _168_
*204 _169_
*205 _170_
*206 _171_
*207 _172_
*208 _173_
*209 _174_
*210 _175_
*211 _176_
*212 _177_
*213 _178_
*214 _179_
*215 _180_
*216 _181_
*217 _182_
*218 _183_
*219 _184_
*220 _185_
*221 _186_
*222 _187_
*223 _188_
*224 _189_
*225 _190_
*226 _191_
*227 _192_
*228 _193_
*229 _194_
*230 _195_
*231 _196_
*232 _197_
*233 _198_
*234 _199_
*235 _200_
*236 _201_
*237 _202_
*238 _203_
*239 _204_
*240 _205_
*241 _206_
*242 _207_
*243 _208_
*244 _209_
*245 _210_
*246 _211_
*247 _212_
*248 _213_
*249 _214_
*250 _215_
*251 _216_
*252 _217_
*253 _218_
*254 _219_
*255 _220_
*256 _221_
*257 _222_
*258 _223_
*259 _224_
*260 _225_
*261 _226_
*262 _227_
*263 _228_
*264 mul_ll\.mul_ll\.pp1
*265 mul_ll\.mul_ll\.pp2
*266 net1
*267 net10
*268 net11
*269 net12
*270 net13
*271 net14
*272 net15
*273 net16
*274 net17
*275 net18
*276 net19
*277 net2
*278 net20
*279 net21
*280 net22
*281 net23
*282 net24
*283 net25
*284 net26
*285 net27
*286 net28
*287 net29
*288 net3
*289 net30
*290 net31
*291 net32
*292 net33
*293 net34
*294 net35
*295 net36
*296 net37
*297 net38
*298 net39
*299 net4
*300 net40
*301 net41
*302 net42
*303 net43
*304 net44
*305 net45
*306 net46
*307 net47
*308 net48
*309 net49
*310 net5
*311 net50
*312 net51
*313 net52
*314 net53
*315 net54
*316 net55
*317 net56
*318 net57
*319 net58
*320 net59
*321 net6
*322 net60
*323 net61
*324 net62
*325 net63
*326 net64
*327 net65
*328 net66
*329 net67
*330 net68
*331 net69
*332 net7
*333 net70
*334 net71
*335 net72
*336 net73
*337 net74
*338 net75
*339 net76
*340 net77
*341 net78
*342 net79
*343 net8
*344 net82
*345 net83
*346 net84
*347 net9
*348 FILLER_0_109
*349 FILLER_0_113
*350 FILLER_0_125
*351 FILLER_0_129
*352 FILLER_0_139
*353 FILLER_0_141
*354 FILLER_0_147
*355 FILLER_0_15
*356 FILLER_0_159
*357 FILLER_0_167
*358 FILLER_0_169
*359 FILLER_0_177
*360 FILLER_0_184
*361 FILLER_0_197
*362 FILLER_0_203
*363 FILLER_0_215
*364 FILLER_0_223
*365 FILLER_0_225
*366 FILLER_0_237
*367 FILLER_0_249
*368 FILLER_0_253
*369 FILLER_0_265
*370 FILLER_0_27
*371 FILLER_0_277
*372 FILLER_0_281
*373 FILLER_0_29
*374 FILLER_0_293
*375 FILLER_0_3
*376 FILLER_0_301
*377 FILLER_0_307
*378 FILLER_0_309
*379 FILLER_0_321
*380 FILLER_0_333
*381 FILLER_0_337
*382 FILLER_0_349
*383 FILLER_0_361
*384 FILLER_0_365
*385 FILLER_0_377
*386 FILLER_0_389
*387 FILLER_0_393
*388 FILLER_0_405
*389 FILLER_0_41
*390 FILLER_0_53
*391 FILLER_0_57
*392 FILLER_0_69
*393 FILLER_0_81
*394 FILLER_0_85
*395 FILLER_0_97
*396 FILLER_10_109
*397 FILLER_10_121
*398 FILLER_10_133
*399 FILLER_10_139
*400 FILLER_10_141
*401 FILLER_10_15
*402 FILLER_10_153
*403 FILLER_10_165
*404 FILLER_10_177
*405 FILLER_10_189
*406 FILLER_10_195
*407 FILLER_10_209
*408 FILLER_10_221
*409 FILLER_10_233
*410 FILLER_10_27
*411 FILLER_10_274
*412 FILLER_10_286
*413 FILLER_10_29
*414 FILLER_10_298
*415 FILLER_10_3
*416 FILLER_10_306
*417 FILLER_10_309
*418 FILLER_10_321
*419 FILLER_10_333
*420 FILLER_10_345
*421 FILLER_10_357
*422 FILLER_10_363
*423 FILLER_10_365
*424 FILLER_10_377
*425 FILLER_10_389
*426 FILLER_10_401
*427 FILLER_10_41
*428 FILLER_10_53
*429 FILLER_10_65
*430 FILLER_10_77
*431 FILLER_10_83
*432 FILLER_10_85
*433 FILLER_10_97
*434 FILLER_11_105
*435 FILLER_11_111
*436 FILLER_11_113
*437 FILLER_11_125
*438 FILLER_11_137
*439 FILLER_11_149
*440 FILLER_11_15
*441 FILLER_11_161
*442 FILLER_11_167
*443 FILLER_11_169
*444 FILLER_11_181
*445 FILLER_11_193
*446 FILLER_11_205
*447 FILLER_11_217
*448 FILLER_11_223
*449 FILLER_11_225
*450 FILLER_11_246
*451 FILLER_11_254
*452 FILLER_11_27
*453 FILLER_11_278
*454 FILLER_11_285
*455 FILLER_11_297
*456 FILLER_11_3
*457 FILLER_11_309
*458 FILLER_11_321
*459 FILLER_11_333
*460 FILLER_11_337
*461 FILLER_11_349
*462 FILLER_11_361
*463 FILLER_11_373
*464 FILLER_11_385
*465 FILLER_11_39
*466 FILLER_11_391
*467 FILLER_11_393
*468 FILLER_11_405
*469 FILLER_11_51
*470 FILLER_11_55
*471 FILLER_11_57
*472 FILLER_11_69
*473 FILLER_11_81
*474 FILLER_11_93
*475 FILLER_12_109
*476 FILLER_12_121
*477 FILLER_12_133
*478 FILLER_12_139
*479 FILLER_12_141
*480 FILLER_12_15
*481 FILLER_12_153
*482 FILLER_12_165
*483 FILLER_12_177
*484 FILLER_12_189
*485 FILLER_12_195
*486 FILLER_12_197
*487 FILLER_12_209
*488 FILLER_12_221
*489 FILLER_12_233
*490 FILLER_12_241
*491 FILLER_12_249
*492 FILLER_12_260
*493 FILLER_12_27
*494 FILLER_12_289
*495 FILLER_12_29
*496 FILLER_12_3
*497 FILLER_12_301
*498 FILLER_12_307
*499 FILLER_12_309
*500 FILLER_12_321
*501 FILLER_12_333
*502 FILLER_12_345
*503 FILLER_12_357
*504 FILLER_12_363
*505 FILLER_12_365
*506 FILLER_12_377
*507 FILLER_12_389
*508 FILLER_12_401
*509 FILLER_12_41
*510 FILLER_12_53
*511 FILLER_12_65
*512 FILLER_12_77
*513 FILLER_12_83
*514 FILLER_12_85
*515 FILLER_12_97
*516 FILLER_13_105
*517 FILLER_13_111
*518 FILLER_13_113
*519 FILLER_13_125
*520 FILLER_13_137
*521 FILLER_13_148
*522 FILLER_13_15
*523 FILLER_13_160
*524 FILLER_13_169
*525 FILLER_13_181
*526 FILLER_13_193
*527 FILLER_13_205
*528 FILLER_13_217
*529 FILLER_13_223
*530 FILLER_13_225
*531 FILLER_13_229
*532 FILLER_13_244
*533 FILLER_13_256
*534 FILLER_13_27
*535 FILLER_13_3
*536 FILLER_13_302
*537 FILLER_13_314
*538 FILLER_13_326
*539 FILLER_13_334
*540 FILLER_13_337
*541 FILLER_13_349
*542 FILLER_13_361
*543 FILLER_13_373
*544 FILLER_13_385
*545 FILLER_13_39
*546 FILLER_13_391
*547 FILLER_13_393
*548 FILLER_13_405
*549 FILLER_13_51
*550 FILLER_13_55
*551 FILLER_13_57
*552 FILLER_13_69
*553 FILLER_13_81
*554 FILLER_13_93
*555 FILLER_14_109
*556 FILLER_14_121
*557 FILLER_14_15
*558 FILLER_14_165
*559 FILLER_14_173
*560 FILLER_14_181
*561 FILLER_14_193
*562 FILLER_14_214
*563 FILLER_14_226
*564 FILLER_14_230
*565 FILLER_14_243
*566 FILLER_14_251
*567 FILLER_14_253
*568 FILLER_14_265
*569 FILLER_14_27
*570 FILLER_14_277
*571 FILLER_14_29
*572 FILLER_14_290
*573 FILLER_14_294
*574 FILLER_14_298
*575 FILLER_14_3
*576 FILLER_14_306
*577 FILLER_14_309
*578 FILLER_14_321
*579 FILLER_14_329
*580 FILLER_14_336
*581 FILLER_14_348
*582 FILLER_14_360
*583 FILLER_14_365
*584 FILLER_14_377
*585 FILLER_14_389
*586 FILLER_14_401
*587 FILLER_14_41
*588 FILLER_14_53
*589 FILLER_14_65
*590 FILLER_14_77
*591 FILLER_14_83
*592 FILLER_14_85
*593 FILLER_14_97
*594 FILLER_15_105
*595 FILLER_15_111
*596 FILLER_15_113
*597 FILLER_15_125
*598 FILLER_15_15
*599 FILLER_15_150
*600 FILLER_15_166
*601 FILLER_15_169
*602 FILLER_15_188
*603 FILLER_15_207
*604 FILLER_15_215
*605 FILLER_15_219
*606 FILLER_15_223
*607 FILLER_15_225
*608 FILLER_15_237
*609 FILLER_15_243
*610 FILLER_15_255
*611 FILLER_15_267
*612 FILLER_15_27
*613 FILLER_15_279
*614 FILLER_15_281
*615 FILLER_15_285
*616 FILLER_15_290
*617 FILLER_15_3
*618 FILLER_15_304
*619 FILLER_15_316
*620 FILLER_15_324
*621 FILLER_15_331
*622 FILLER_15_335
*623 FILLER_15_337
*624 FILLER_15_349
*625 FILLER_15_361
*626 FILLER_15_373
*627 FILLER_15_385
*628 FILLER_15_39
*629 FILLER_15_391
*630 FILLER_15_393
*631 FILLER_15_397
*632 FILLER_15_51
*633 FILLER_15_55
*634 FILLER_15_57
*635 FILLER_15_69
*636 FILLER_15_81
*637 FILLER_15_93
*638 FILLER_16_109
*639 FILLER_16_121
*640 FILLER_16_141
*641 FILLER_16_15
*642 FILLER_16_158
*643 FILLER_16_170
*644 FILLER_16_182
*645 FILLER_16_194
*646 FILLER_16_197
*647 FILLER_16_213
*648 FILLER_16_225
*649 FILLER_16_237
*650 FILLER_16_249
*651 FILLER_16_253
*652 FILLER_16_265
*653 FILLER_16_27
*654 FILLER_16_277
*655 FILLER_16_289
*656 FILLER_16_29
*657 FILLER_16_3
*658 FILLER_16_302
*659 FILLER_16_309
*660 FILLER_16_315
*661 FILLER_16_327
*662 FILLER_16_335
*663 FILLER_16_344
*664 FILLER_16_356
*665 FILLER_16_365
*666 FILLER_16_377
*667 FILLER_16_389
*668 FILLER_16_401
*669 FILLER_16_41
*670 FILLER_16_53
*671 FILLER_16_65
*672 FILLER_16_77
*673 FILLER_16_83
*674 FILLER_16_85
*675 FILLER_16_97
*676 FILLER_17_105
*677 FILLER_17_111
*678 FILLER_17_113
*679 FILLER_17_125
*680 FILLER_17_137
*681 FILLER_17_149
*682 FILLER_17_15
*683 FILLER_17_161
*684 FILLER_17_167
*685 FILLER_17_169
*686 FILLER_17_181
*687 FILLER_17_196
*688 FILLER_17_208
*689 FILLER_17_220
*690 FILLER_17_225
*691 FILLER_17_237
*692 FILLER_17_249
*693 FILLER_17_27
*694 FILLER_17_275
*695 FILLER_17_279
*696 FILLER_17_281
*697 FILLER_17_285
*698 FILLER_17_293
*699 FILLER_17_3
*700 FILLER_17_305
*701 FILLER_17_317
*702 FILLER_17_325
*703 FILLER_17_334
*704 FILLER_17_337
*705 FILLER_17_349
*706 FILLER_17_361
*707 FILLER_17_373
*708 FILLER_17_385
*709 FILLER_17_39
*710 FILLER_17_391
*711 FILLER_17_393
*712 FILLER_17_405
*713 FILLER_17_51
*714 FILLER_17_55
*715 FILLER_17_57
*716 FILLER_17_69
*717 FILLER_17_81
*718 FILLER_17_93
*719 FILLER_18_109
*720 FILLER_18_121
*721 FILLER_18_133
*722 FILLER_18_139
*723 FILLER_18_141
*724 FILLER_18_15
*725 FILLER_18_153
*726 FILLER_18_161
*727 FILLER_18_181
*728 FILLER_18_193
*729 FILLER_18_197
*730 FILLER_18_205
*731 FILLER_18_224
*732 FILLER_18_236
*733 FILLER_18_248
*734 FILLER_18_253
*735 FILLER_18_269
*736 FILLER_18_27
*737 FILLER_18_276
*738 FILLER_18_284
*739 FILLER_18_288
*740 FILLER_18_29
*741 FILLER_18_297
*742 FILLER_18_3
*743 FILLER_18_305
*744 FILLER_18_315
*745 FILLER_18_327
*746 FILLER_18_339
*747 FILLER_18_351
*748 FILLER_18_363
*749 FILLER_18_365
*750 FILLER_18_377
*751 FILLER_18_389
*752 FILLER_18_401
*753 FILLER_18_41
*754 FILLER_18_53
*755 FILLER_18_65
*756 FILLER_18_77
*757 FILLER_18_83
*758 FILLER_18_85
*759 FILLER_18_97
*760 FILLER_19_105
*761 FILLER_19_111
*762 FILLER_19_113
*763 FILLER_19_125
*764 FILLER_19_133
*765 FILLER_19_146
*766 FILLER_19_15
*767 FILLER_19_158
*768 FILLER_19_166
*769 FILLER_19_169
*770 FILLER_19_175
*771 FILLER_19_196
*772 FILLER_19_208
*773 FILLER_19_220
*774 FILLER_19_225
*775 FILLER_19_237
*776 FILLER_19_245
*777 FILLER_19_250
*778 FILLER_19_264
*779 FILLER_19_27
*780 FILLER_19_270
*781 FILLER_19_278
*782 FILLER_19_281
*783 FILLER_19_289
*784 FILLER_19_3
*785 FILLER_19_325
*786 FILLER_19_333
*787 FILLER_19_337
*788 FILLER_19_349
*789 FILLER_19_361
*790 FILLER_19_373
*791 FILLER_19_385
*792 FILLER_19_39
*793 FILLER_19_391
*794 FILLER_19_393
*795 FILLER_19_401
*796 FILLER_19_51
*797 FILLER_19_55
*798 FILLER_19_57
*799 FILLER_19_69
*800 FILLER_19_81
*801 FILLER_19_93
*802 FILLER_1_105
*803 FILLER_1_111
*804 FILLER_1_113
*805 FILLER_1_125
*806 FILLER_1_137
*807 FILLER_1_149
*808 FILLER_1_15
*809 FILLER_1_161
*810 FILLER_1_167
*811 FILLER_1_169
*812 FILLER_1_181
*813 FILLER_1_193
*814 FILLER_1_205
*815 FILLER_1_217
*816 FILLER_1_223
*817 FILLER_1_225
*818 FILLER_1_237
*819 FILLER_1_249
*820 FILLER_1_261
*821 FILLER_1_27
*822 FILLER_1_273
*823 FILLER_1_279
*824 FILLER_1_281
*825 FILLER_1_293
*826 FILLER_1_3
*827 FILLER_1_305
*828 FILLER_1_317
*829 FILLER_1_329
*830 FILLER_1_335
*831 FILLER_1_337
*832 FILLER_1_349
*833 FILLER_1_361
*834 FILLER_1_373
*835 FILLER_1_385
*836 FILLER_1_39
*837 FILLER_1_391
*838 FILLER_1_393
*839 FILLER_1_405
*840 FILLER_1_51
*841 FILLER_1_55
*842 FILLER_1_57
*843 FILLER_1_69
*844 FILLER_1_81
*845 FILLER_1_93
*846 FILLER_20_109
*847 FILLER_20_121
*848 FILLER_20_133
*849 FILLER_20_139
*850 FILLER_20_141
*851 FILLER_20_15
*852 FILLER_20_153
*853 FILLER_20_165
*854 FILLER_20_177
*855 FILLER_20_192
*856 FILLER_20_197
*857 FILLER_20_209
*858 FILLER_20_224
*859 FILLER_20_236
*860 FILLER_20_240
*861 FILLER_20_253
*862 FILLER_20_262
*863 FILLER_20_27
*864 FILLER_20_274
*865 FILLER_20_286
*866 FILLER_20_29
*867 FILLER_20_298
*868 FILLER_20_3
*869 FILLER_20_306
*870 FILLER_20_309
*871 FILLER_20_321
*872 FILLER_20_333
*873 FILLER_20_345
*874 FILLER_20_357
*875 FILLER_20_363
*876 FILLER_20_365
*877 FILLER_20_376
*878 FILLER_20_382
*879 FILLER_20_393
*880 FILLER_20_401
*881 FILLER_20_41
*882 FILLER_20_53
*883 FILLER_20_65
*884 FILLER_20_77
*885 FILLER_20_83
*886 FILLER_20_85
*887 FILLER_20_97
*888 FILLER_21_105
*889 FILLER_21_111
*890 FILLER_21_113
*891 FILLER_21_125
*892 FILLER_21_137
*893 FILLER_21_15
*894 FILLER_21_163
*895 FILLER_21_167
*896 FILLER_21_169
*897 FILLER_21_177
*898 FILLER_21_187
*899 FILLER_21_199
*900 FILLER_21_207
*901 FILLER_21_217
*902 FILLER_21_223
*903 FILLER_21_234
*904 FILLER_21_246
*905 FILLER_21_258
*906 FILLER_21_27
*907 FILLER_21_270
*908 FILLER_21_278
*909 FILLER_21_281
*910 FILLER_21_293
*911 FILLER_21_3
*912 FILLER_21_305
*913 FILLER_21_317
*914 FILLER_21_329
*915 FILLER_21_335
*916 FILLER_21_349
*917 FILLER_21_361
*918 FILLER_21_369
*919 FILLER_21_381
*920 FILLER_21_389
*921 FILLER_21_39
*922 FILLER_21_393
*923 FILLER_21_401
*924 FILLER_21_51
*925 FILLER_21_55
*926 FILLER_21_57
*927 FILLER_21_69
*928 FILLER_21_81
*929 FILLER_21_93
*930 FILLER_22_109
*931 FILLER_22_121
*932 FILLER_22_133
*933 FILLER_22_139
*934 FILLER_22_148
*935 FILLER_22_15
*936 FILLER_22_160
*937 FILLER_22_172
*938 FILLER_22_190
*939 FILLER_22_197
*940 FILLER_22_223
*941 FILLER_22_235
*942 FILLER_22_246
*943 FILLER_22_253
*944 FILLER_22_265
*945 FILLER_22_27
*946 FILLER_22_273
*947 FILLER_22_29
*948 FILLER_22_3
*949 FILLER_22_305
*950 FILLER_22_309
*951 FILLER_22_321
*952 FILLER_22_333
*953 FILLER_22_354
*954 FILLER_22_362
*955 FILLER_22_365
*956 FILLER_22_377
*957 FILLER_22_389
*958 FILLER_22_401
*959 FILLER_22_41
*960 FILLER_22_53
*961 FILLER_22_65
*962 FILLER_22_77
*963 FILLER_22_83
*964 FILLER_22_85
*965 FILLER_22_97
*966 FILLER_23_105
*967 FILLER_23_111
*968 FILLER_23_113
*969 FILLER_23_125
*970 FILLER_23_133
*971 FILLER_23_139
*972 FILLER_23_15
*973 FILLER_23_151
*974 FILLER_23_163
*975 FILLER_23_167
*976 FILLER_23_169
*977 FILLER_23_179
*978 FILLER_23_191
*979 FILLER_23_203
*980 FILLER_23_215
*981 FILLER_23_223
*982 FILLER_23_225
*983 FILLER_23_237
*984 FILLER_23_249
*985 FILLER_23_261
*986 FILLER_23_27
*987 FILLER_23_273
*988 FILLER_23_279
*989 FILLER_23_281
*990 FILLER_23_292
*991 FILLER_23_3
*992 FILLER_23_304
*993 FILLER_23_316
*994 FILLER_23_328
*995 FILLER_23_337
*996 FILLER_23_349
*997 FILLER_23_361
*998 FILLER_23_373
*999 FILLER_23_385
*1000 FILLER_23_39
*1001 FILLER_23_391
*1002 FILLER_23_393
*1003 FILLER_23_405
*1004 FILLER_23_51
*1005 FILLER_23_55
*1006 FILLER_23_57
*1007 FILLER_23_69
*1008 FILLER_23_81
*1009 FILLER_23_93
*1010 FILLER_24_109
*1011 FILLER_24_121
*1012 FILLER_24_133
*1013 FILLER_24_139
*1014 FILLER_24_145
*1015 FILLER_24_15
*1016 FILLER_24_157
*1017 FILLER_24_169
*1018 FILLER_24_181
*1019 FILLER_24_193
*1020 FILLER_24_197
*1021 FILLER_24_209
*1022 FILLER_24_221
*1023 FILLER_24_233
*1024 FILLER_24_245
*1025 FILLER_24_251
*1026 FILLER_24_253
*1027 FILLER_24_265
*1028 FILLER_24_27
*1029 FILLER_24_277
*1030 FILLER_24_289
*1031 FILLER_24_29
*1032 FILLER_24_3
*1033 FILLER_24_301
*1034 FILLER_24_307
*1035 FILLER_24_309
*1036 FILLER_24_321
*1037 FILLER_24_333
*1038 FILLER_24_344
*1039 FILLER_24_348
*1040 FILLER_24_359
*1041 FILLER_24_363
*1042 FILLER_24_365
*1043 FILLER_24_377
*1044 FILLER_24_390
*1045 FILLER_24_398
*1046 FILLER_24_41
*1047 FILLER_24_53
*1048 FILLER_24_65
*1049 FILLER_24_77
*1050 FILLER_24_83
*1051 FILLER_24_85
*1052 FILLER_24_97
*1053 FILLER_25_105
*1054 FILLER_25_111
*1055 FILLER_25_113
*1056 FILLER_25_125
*1057 FILLER_25_137
*1058 FILLER_25_15
*1059 FILLER_25_151
*1060 FILLER_25_163
*1061 FILLER_25_167
*1062 FILLER_25_169
*1063 FILLER_25_181
*1064 FILLER_25_193
*1065 FILLER_25_205
*1066 FILLER_25_217
*1067 FILLER_25_223
*1068 FILLER_25_225
*1069 FILLER_25_237
*1070 FILLER_25_249
*1071 FILLER_25_261
*1072 FILLER_25_27
*1073 FILLER_25_273
*1074 FILLER_25_279
*1075 FILLER_25_281
*1076 FILLER_25_293
*1077 FILLER_25_3
*1078 FILLER_25_309
*1079 FILLER_25_321
*1080 FILLER_25_333
*1081 FILLER_25_337
*1082 FILLER_25_345
*1083 FILLER_25_362
*1084 FILLER_25_380
*1085 FILLER_25_388
*1086 FILLER_25_39
*1087 FILLER_25_399
*1088 FILLER_25_51
*1089 FILLER_25_55
*1090 FILLER_25_57
*1091 FILLER_25_69
*1092 FILLER_25_81
*1093 FILLER_25_93
*1094 FILLER_26_109
*1095 FILLER_26_121
*1096 FILLER_26_133
*1097 FILLER_26_139
*1098 FILLER_26_141
*1099 FILLER_26_15
*1100 FILLER_26_153
*1101 FILLER_26_165
*1102 FILLER_26_177
*1103 FILLER_26_189
*1104 FILLER_26_195
*1105 FILLER_26_197
*1106 FILLER_26_209
*1107 FILLER_26_221
*1108 FILLER_26_233
*1109 FILLER_26_241
*1110 FILLER_26_249
*1111 FILLER_26_253
*1112 FILLER_26_257
*1113 FILLER_26_264
*1114 FILLER_26_27
*1115 FILLER_26_270
*1116 FILLER_26_274
*1117 FILLER_26_286
*1118 FILLER_26_29
*1119 FILLER_26_298
*1120 FILLER_26_3
*1121 FILLER_26_306
*1122 FILLER_26_309
*1123 FILLER_26_317
*1124 FILLER_26_329
*1125 FILLER_26_348
*1126 FILLER_26_359
*1127 FILLER_26_363
*1128 FILLER_26_365
*1129 FILLER_26_377
*1130 FILLER_26_389
*1131 FILLER_26_401
*1132 FILLER_26_41
*1133 FILLER_26_53
*1134 FILLER_26_65
*1135 FILLER_26_77
*1136 FILLER_26_83
*1137 FILLER_26_85
*1138 FILLER_26_97
*1139 FILLER_27_105
*1140 FILLER_27_111
*1141 FILLER_27_113
*1142 FILLER_27_125
*1143 FILLER_27_137
*1144 FILLER_27_149
*1145 FILLER_27_15
*1146 FILLER_27_161
*1147 FILLER_27_167
*1148 FILLER_27_169
*1149 FILLER_27_181
*1150 FILLER_27_193
*1151 FILLER_27_205
*1152 FILLER_27_217
*1153 FILLER_27_223
*1154 FILLER_27_235
*1155 FILLER_27_247
*1156 FILLER_27_253
*1157 FILLER_27_263
*1158 FILLER_27_27
*1159 FILLER_27_275
*1160 FILLER_27_279
*1161 FILLER_27_281
*1162 FILLER_27_293
*1163 FILLER_27_3
*1164 FILLER_27_305
*1165 FILLER_27_309
*1166 FILLER_27_317
*1167 FILLER_27_329
*1168 FILLER_27_335
*1169 FILLER_27_337
*1170 FILLER_27_349
*1171 FILLER_27_361
*1172 FILLER_27_373
*1173 FILLER_27_382
*1174 FILLER_27_39
*1175 FILLER_27_390
*1176 FILLER_27_393
*1177 FILLER_27_401
*1178 FILLER_27_51
*1179 FILLER_27_55
*1180 FILLER_27_57
*1181 FILLER_27_69
*1182 FILLER_27_81
*1183 FILLER_27_93
*1184 FILLER_28_109
*1185 FILLER_28_121
*1186 FILLER_28_129
*1187 FILLER_28_15
*1188 FILLER_28_157
*1189 FILLER_28_169
*1190 FILLER_28_181
*1191 FILLER_28_197
*1192 FILLER_28_213
*1193 FILLER_28_221
*1194 FILLER_28_233
*1195 FILLER_28_244
*1196 FILLER_28_27
*1197 FILLER_28_276
*1198 FILLER_28_288
*1199 FILLER_28_29
*1200 FILLER_28_3
*1201 FILLER_28_300
*1202 FILLER_28_309
*1203 FILLER_28_321
*1204 FILLER_28_333
*1205 FILLER_28_345
*1206 FILLER_28_357
*1207 FILLER_28_363
*1208 FILLER_28_365
*1209 FILLER_28_377
*1210 FILLER_28_389
*1211 FILLER_28_401
*1212 FILLER_28_41
*1213 FILLER_28_53
*1214 FILLER_28_65
*1215 FILLER_28_77
*1216 FILLER_28_83
*1217 FILLER_28_85
*1218 FILLER_28_97
*1219 FILLER_29_111
*1220 FILLER_29_113
*1221 FILLER_29_125
*1222 FILLER_29_137
*1223 FILLER_29_143
*1224 FILLER_29_15
*1225 FILLER_29_164
*1226 FILLER_29_175
*1227 FILLER_29_187
*1228 FILLER_29_199
*1229 FILLER_29_212
*1230 FILLER_29_225
*1231 FILLER_29_237
*1232 FILLER_29_243
*1233 FILLER_29_269
*1234 FILLER_29_27
*1235 FILLER_29_277
*1236 FILLER_29_281
*1237 FILLER_29_293
*1238 FILLER_29_3
*1239 FILLER_29_305
*1240 FILLER_29_322
*1241 FILLER_29_330
*1242 FILLER_29_334
*1243 FILLER_29_337
*1244 FILLER_29_349
*1245 FILLER_29_361
*1246 FILLER_29_373
*1247 FILLER_29_385
*1248 FILLER_29_39
*1249 FILLER_29_391
*1250 FILLER_29_393
*1251 FILLER_29_401
*1252 FILLER_29_51
*1253 FILLER_29_55
*1254 FILLER_29_57
*1255 FILLER_29_75
*1256 FILLER_29_87
*1257 FILLER_29_99
*1258 FILLER_2_109
*1259 FILLER_2_121
*1260 FILLER_2_133
*1261 FILLER_2_139
*1262 FILLER_2_141
*1263 FILLER_2_15
*1264 FILLER_2_153
*1265 FILLER_2_165
*1266 FILLER_2_177
*1267 FILLER_2_189
*1268 FILLER_2_195
*1269 FILLER_2_200
*1270 FILLER_2_212
*1271 FILLER_2_224
*1272 FILLER_2_236
*1273 FILLER_2_248
*1274 FILLER_2_253
*1275 FILLER_2_265
*1276 FILLER_2_27
*1277 FILLER_2_277
*1278 FILLER_2_289
*1279 FILLER_2_29
*1280 FILLER_2_3
*1281 FILLER_2_301
*1282 FILLER_2_307
*1283 FILLER_2_309
*1284 FILLER_2_321
*1285 FILLER_2_333
*1286 FILLER_2_345
*1287 FILLER_2_357
*1288 FILLER_2_363
*1289 FILLER_2_365
*1290 FILLER_2_377
*1291 FILLER_2_389
*1292 FILLER_2_401
*1293 FILLER_2_41
*1294 FILLER_2_53
*1295 FILLER_2_65
*1296 FILLER_2_77
*1297 FILLER_2_83
*1298 FILLER_2_85
*1299 FILLER_2_97
*1300 FILLER_30_113
*1301 FILLER_30_125
*1302 FILLER_30_137
*1303 FILLER_30_141
*1304 FILLER_30_15
*1305 FILLER_30_153
*1306 FILLER_30_159
*1307 FILLER_30_171
*1308 FILLER_30_181
*1309 FILLER_30_193
*1310 FILLER_30_197
*1311 FILLER_30_218
*1312 FILLER_30_230
*1313 FILLER_30_242
*1314 FILLER_30_250
*1315 FILLER_30_253
*1316 FILLER_30_265
*1317 FILLER_30_27
*1318 FILLER_30_277
*1319 FILLER_30_289
*1320 FILLER_30_29
*1321 FILLER_30_3
*1322 FILLER_30_304
*1323 FILLER_30_309
*1324 FILLER_30_317
*1325 FILLER_30_340
*1326 FILLER_30_352
*1327 FILLER_30_365
*1328 FILLER_30_377
*1329 FILLER_30_389
*1330 FILLER_30_401
*1331 FILLER_30_41
*1332 FILLER_30_49
*1333 FILLER_30_69
*1334 FILLER_30_85
*1335 FILLER_31_108
*1336 FILLER_31_120
*1337 FILLER_31_132
*1338 FILLER_31_144
*1339 FILLER_31_154
*1340 FILLER_31_166
*1341 FILLER_31_169
*1342 FILLER_31_181
*1343 FILLER_31_193
*1344 FILLER_31_205
*1345 FILLER_31_21
*1346 FILLER_31_217
*1347 FILLER_31_223
*1348 FILLER_31_225
*1349 FILLER_31_237
*1350 FILLER_31_256
*1351 FILLER_31_268
*1352 FILLER_31_281
*1353 FILLER_31_293
*1354 FILLER_31_305
*1355 FILLER_31_317
*1356 FILLER_31_341
*1357 FILLER_31_350
*1358 FILLER_31_362
*1359 FILLER_31_374
*1360 FILLER_31_386
*1361 FILLER_31_393
*1362 FILLER_31_405
*1363 FILLER_31_48
*1364 FILLER_31_57
*1365 FILLER_31_63
*1366 FILLER_31_72
*1367 FILLER_31_84
*1368 FILLER_31_9
*1369 FILLER_31_96
*1370 FILLER_32_101
*1371 FILLER_32_109
*1372 FILLER_32_121
*1373 FILLER_32_133
*1374 FILLER_32_139
*1375 FILLER_32_141
*1376 FILLER_32_157
*1377 FILLER_32_169
*1378 FILLER_32_177
*1379 FILLER_32_183
*1380 FILLER_32_195
*1381 FILLER_32_205
*1382 FILLER_32_217
*1383 FILLER_32_22
*1384 FILLER_32_229
*1385 FILLER_32_241
*1386 FILLER_32_249
*1387 FILLER_32_253
*1388 FILLER_32_261
*1389 FILLER_32_266
*1390 FILLER_32_275
*1391 FILLER_32_287
*1392 FILLER_32_29
*1393 FILLER_32_294
*1394 FILLER_32_306
*1395 FILLER_32_309
*1396 FILLER_32_321
*1397 FILLER_32_333
*1398 FILLER_32_337
*1399 FILLER_32_345
*1400 FILLER_32_357
*1401 FILLER_32_363
*1402 FILLER_32_365
*1403 FILLER_32_377
*1404 FILLER_32_389
*1405 FILLER_32_401
*1406 FILLER_32_41
*1407 FILLER_32_53
*1408 FILLER_32_65
*1409 FILLER_32_77
*1410 FILLER_32_83
*1411 FILLER_32_85
*1412 FILLER_32_9
*1413 FILLER_32_97
*1414 FILLER_33_105
*1415 FILLER_33_111
*1416 FILLER_33_113
*1417 FILLER_33_125
*1418 FILLER_33_137
*1419 FILLER_33_145
*1420 FILLER_33_15
*1421 FILLER_33_160
*1422 FILLER_33_169
*1423 FILLER_33_181
*1424 FILLER_33_200
*1425 FILLER_33_208
*1426 FILLER_33_214
*1427 FILLER_33_22
*1428 FILLER_33_222
*1429 FILLER_33_225
*1430 FILLER_33_237
*1431 FILLER_33_243
*1432 FILLER_33_249
*1433 FILLER_33_257
*1434 FILLER_33_264
*1435 FILLER_33_276
*1436 FILLER_33_281
*1437 FILLER_33_293
*1438 FILLER_33_3
*1439 FILLER_33_30
*1440 FILLER_33_305
*1441 FILLER_33_317
*1442 FILLER_33_329
*1443 FILLER_33_335
*1444 FILLER_33_337
*1445 FILLER_33_349
*1446 FILLER_33_361
*1447 FILLER_33_37
*1448 FILLER_33_373
*1449 FILLER_33_385
*1450 FILLER_33_391
*1451 FILLER_33_393
*1452 FILLER_33_405
*1453 FILLER_33_49
*1454 FILLER_33_55
*1455 FILLER_33_57
*1456 FILLER_33_69
*1457 FILLER_33_81
*1458 FILLER_33_93
*1459 FILLER_34_101
*1460 FILLER_34_109
*1461 FILLER_34_11
*1462 FILLER_34_125
*1463 FILLER_34_137
*1464 FILLER_34_141
*1465 FILLER_34_153
*1466 FILLER_34_165
*1467 FILLER_34_177
*1468 FILLER_34_18
*1469 FILLER_34_189
*1470 FILLER_34_195
*1471 FILLER_34_197
*1472 FILLER_34_209
*1473 FILLER_34_221
*1474 FILLER_34_233
*1475 FILLER_34_245
*1476 FILLER_34_251
*1477 FILLER_34_253
*1478 FILLER_34_26
*1479 FILLER_34_265
*1480 FILLER_34_277
*1481 FILLER_34_289
*1482 FILLER_34_29
*1483 FILLER_34_3
*1484 FILLER_34_301
*1485 FILLER_34_307
*1486 FILLER_34_309
*1487 FILLER_34_321
*1488 FILLER_34_333
*1489 FILLER_34_345
*1490 FILLER_34_357
*1491 FILLER_34_363
*1492 FILLER_34_365
*1493 FILLER_34_377
*1494 FILLER_34_389
*1495 FILLER_34_401
*1496 FILLER_34_41
*1497 FILLER_34_53
*1498 FILLER_34_61
*1499 FILLER_34_72
*1500 FILLER_34_85
*1501 FILLER_35_104
*1502 FILLER_35_113
*1503 FILLER_35_125
*1504 FILLER_35_137
*1505 FILLER_35_149
*1506 FILLER_35_161
*1507 FILLER_35_167
*1508 FILLER_35_169
*1509 FILLER_35_181
*1510 FILLER_35_193
*1511 FILLER_35_205
*1512 FILLER_35_219
*1513 FILLER_35_223
*1514 FILLER_35_225
*1515 FILLER_35_237
*1516 FILLER_35_252
*1517 FILLER_35_264
*1518 FILLER_35_276
*1519 FILLER_35_28
*1520 FILLER_35_281
*1521 FILLER_35_293
*1522 FILLER_35_305
*1523 FILLER_35_317
*1524 FILLER_35_329
*1525 FILLER_35_335
*1526 FILLER_35_337
*1527 FILLER_35_349
*1528 FILLER_35_361
*1529 FILLER_35_373
*1530 FILLER_35_385
*1531 FILLER_35_391
*1532 FILLER_35_393
*1533 FILLER_35_40
*1534 FILLER_35_401
*1535 FILLER_35_52
*1536 FILLER_35_57
*1537 FILLER_35_6
*1538 FILLER_35_69
*1539 FILLER_35_81
*1540 FILLER_35_89
*1541 FILLER_36_101
*1542 FILLER_36_105
*1543 FILLER_36_114
*1544 FILLER_36_125
*1545 FILLER_36_137
*1546 FILLER_36_141
*1547 FILLER_36_153
*1548 FILLER_36_165
*1549 FILLER_36_177
*1550 FILLER_36_189
*1551 FILLER_36_19
*1552 FILLER_36_195
*1553 FILLER_36_197
*1554 FILLER_36_209
*1555 FILLER_36_221
*1556 FILLER_36_233
*1557 FILLER_36_245
*1558 FILLER_36_251
*1559 FILLER_36_253
*1560 FILLER_36_264
*1561 FILLER_36_27
*1562 FILLER_36_276
*1563 FILLER_36_288
*1564 FILLER_36_29
*1565 FILLER_36_292
*1566 FILLER_36_296
*1567 FILLER_36_309
*1568 FILLER_36_321
*1569 FILLER_36_333
*1570 FILLER_36_345
*1571 FILLER_36_357
*1572 FILLER_36_363
*1573 FILLER_36_365
*1574 FILLER_36_37
*1575 FILLER_36_377
*1576 FILLER_36_389
*1577 FILLER_36_401
*1578 FILLER_36_46
*1579 FILLER_36_58
*1580 FILLER_36_63
*1581 FILLER_36_7
*1582 FILLER_36_75
*1583 FILLER_36_83
*1584 FILLER_36_85
*1585 FILLER_36_97
*1586 FILLER_37_105
*1587 FILLER_37_111
*1588 FILLER_37_116
*1589 FILLER_37_128
*1590 FILLER_37_14
*1591 FILLER_37_140
*1592 FILLER_37_152
*1593 FILLER_37_164
*1594 FILLER_37_169
*1595 FILLER_37_181
*1596 FILLER_37_193
*1597 FILLER_37_211
*1598 FILLER_37_223
*1599 FILLER_37_225
*1600 FILLER_37_23
*1601 FILLER_37_237
*1602 FILLER_37_249
*1603 FILLER_37_257
*1604 FILLER_37_275
*1605 FILLER_37_279
*1606 FILLER_37_281
*1607 FILLER_37_294
*1608 FILLER_37_306
*1609 FILLER_37_318
*1610 FILLER_37_330
*1611 FILLER_37_337
*1612 FILLER_37_349
*1613 FILLER_37_35
*1614 FILLER_37_361
*1615 FILLER_37_373
*1616 FILLER_37_385
*1617 FILLER_37_391
*1618 FILLER_37_393
*1619 FILLER_37_405
*1620 FILLER_37_47
*1621 FILLER_37_51
*1622 FILLER_37_57
*1623 FILLER_37_6
*1624 FILLER_37_69
*1625 FILLER_37_81
*1626 FILLER_37_93
*1627 FILLER_38_109
*1628 FILLER_38_11
*1629 FILLER_38_120
*1630 FILLER_38_132
*1631 FILLER_38_141
*1632 FILLER_38_149
*1633 FILLER_38_167
*1634 FILLER_38_179
*1635 FILLER_38_191
*1636 FILLER_38_195
*1637 FILLER_38_197
*1638 FILLER_38_202
*1639 FILLER_38_21
*1640 FILLER_38_214
*1641 FILLER_38_226
*1642 FILLER_38_238
*1643 FILLER_38_250
*1644 FILLER_38_253
*1645 FILLER_38_265
*1646 FILLER_38_27
*1647 FILLER_38_277
*1648 FILLER_38_289
*1649 FILLER_38_29
*1650 FILLER_38_3
*1651 FILLER_38_301
*1652 FILLER_38_307
*1653 FILLER_38_309
*1654 FILLER_38_321
*1655 FILLER_38_333
*1656 FILLER_38_345
*1657 FILLER_38_357
*1658 FILLER_38_363
*1659 FILLER_38_365
*1660 FILLER_38_377
*1661 FILLER_38_389
*1662 FILLER_38_401
*1663 FILLER_38_48
*1664 FILLER_38_60
*1665 FILLER_38_71
*1666 FILLER_38_83
*1667 FILLER_38_85
*1668 FILLER_38_97
*1669 FILLER_39_105
*1670 FILLER_39_111
*1671 FILLER_39_113
*1672 FILLER_39_125
*1673 FILLER_39_133
*1674 FILLER_39_143
*1675 FILLER_39_15
*1676 FILLER_39_155
*1677 FILLER_39_167
*1678 FILLER_39_169
*1679 FILLER_39_181
*1680 FILLER_39_193
*1681 FILLER_39_199
*1682 FILLER_39_206
*1683 FILLER_39_218
*1684 FILLER_39_225
*1685 FILLER_39_237
*1686 FILLER_39_249
*1687 FILLER_39_261
*1688 FILLER_39_27
*1689 FILLER_39_273
*1690 FILLER_39_279
*1691 FILLER_39_281
*1692 FILLER_39_293
*1693 FILLER_39_3
*1694 FILLER_39_305
*1695 FILLER_39_317
*1696 FILLER_39_329
*1697 FILLER_39_335
*1698 FILLER_39_337
*1699 FILLER_39_349
*1700 FILLER_39_361
*1701 FILLER_39_373
*1702 FILLER_39_385