*SPEF "ieee 1481-1999"
*DESIGN "SarsaNada_e10"
*DATE "18:17:07 Tuesday September 16, 2025"
*VENDOR "The OpenROAD Project"
*PROGRAM "OpenROAD"
*VERSION "edf00dff99f6c40d67a30c0e22a8191c5d2ed9d6"
*DESIGN_FLOW "NAME_SCOPE LOCAL" "PIN_CAP NONE"
*DIVIDER /
*DELIMITER :
*BUS_DELIMITER []
*T_UNIT 1 NS
*C_UNIT 1 PF
*R_UNIT 1 OHM
*L_UNIT 1 HENRY

*NAME_MAP
*1 A[0]
*2 A[1]
*3 B[0]
*4 B[1]
*5 P[0]
*6 P[1]
*7 P[2]
*8 P[3]
*11 _0_
*12 _1_
*13 net1
*14 net2
*15 net3
*16 net4
*17 net5
*18 net6
*19 net7
*20 net8
*21 FILLER_0_15
*22 FILLER_0_27
*23 FILLER_0_29
*24 FILLER_0_3
*25 FILLER_0_41
*26 FILLER_0_53
*27 FILLER_0_57
*28 FILLER_0_69
*29 FILLER_1_15
*30 FILLER_1_27
*31 FILLER_1_3
*32 FILLER_1_39
*33 FILLER_1_51
*34 FILLER_1_55
*35 FILLER_1_57
*36 FILLER_1_69
*37 FILLER_2_15
*38 FILLER_2_27
*39 FILLER_2_29
*40 FILLER_2_3
*41 FILLER_2_41
*42 FILLER_2_53
*43 FILLER_2_65
*44 FILLER_2_77
*45 FILLER_3_15
*46 FILLER_3_27
*47 FILLER_3_3
*48 FILLER_3_39
*49 FILLER_3_51
*50 FILLER_3_55
*51 FILLER_3_57
*52 FILLER_3_69
*53 FILLER_4_18
*54 FILLER_4_26
*55 FILLER_4_29
*56 FILLER_4_46
*57 FILLER_4_58
*58 FILLER_4_6
*59 FILLER_4_70
*60 FILLER_4_76
*61 FILLER_5_16
*62 FILLER_5_37
*63 FILLER_5_44
*64 FILLER_5_57
*65 FILLER_5_69
*66 FILLER_5_7
*67 FILLER_5_77
*68 FILLER_6_18
*69 FILLER_6_26
*70 FILLER_6_29
*71 FILLER_6_41
*72 FILLER_6_45
*73 FILLER_6_57
*74 FILLER_6_6
*75 FILLER_6_69
*76 FILLER_7_18
*77 FILLER_7_30
*78 FILLER_7_42
*79 FILLER_7_54
*80 FILLER_7_57
*81 FILLER_7_6
*82 FILLER_7_69
*83 FILLER_8_15
*84 FILLER_8_27
*85 FILLER_8_29
*86 FILLER_8_3
*87 FILLER_8_41
*88 FILLER_8_53
*89 FILLER_8_65
*90 FILLER_8_77
*91 FILLER_9_15
*92 FILLER_9_27
*93 FILLER_9_29
*94 FILLER_9_3
*95 FILLER_9_41
*96 FILLER_9_53
*97 FILLER_9_57
*98 FILLER_9_69
*99 PHY_EDGE_ROW_0_Left_10
*100 PHY_EDGE_ROW_0_Right_0
*101 PHY_EDGE_ROW_1_Left_11
*102 PHY_EDGE_ROW_1_Right_1
*103 PHY_EDGE_ROW_2_Left_12
*104 PHY_EDGE_ROW_2_Right_2
*105 PHY_EDGE_ROW_3_Left_13
*106 PHY_EDGE_ROW_3_Right_3
*107 PHY_EDGE_ROW_4_Left_14
*108 PHY_EDGE_ROW_4_Right_4
*109 PHY_EDGE_ROW_5_Left_15
*110 PHY_EDGE_ROW_5_Right_5
*111 PHY_EDGE_ROW_6_Left_16
*112 PHY_EDGE_ROW_6_Right_6
*113 PHY_EDGE_ROW_7_Left_17
*114 PHY_EDGE_ROW_7_Right_7
*115 PHY_EDGE_ROW_8_Left_18
*116 PHY_EDGE_ROW_8_Right_8
*117 PHY_EDGE_ROW_9_Left_19
*118 PHY_EDGE_ROW_9_Right_9
*119 TAP_TAPCELL_ROW_0_20
*120 TAP_TAPCELL_ROW_0_21
*121 TAP_TAPCELL_ROW_1_22
*122 TAP_TAPCELL_ROW_2_23
*123 TAP_TAPCELL_ROW_3_24
*124 TAP_TAPCELL_ROW_4_25
*125 TAP_TAPCELL_ROW_5_26
*126 TAP_TAPCELL_ROW_6_27
*127 TAP_TAPCELL_ROW_7_28
*128 TAP_TAPCELL_ROW_8_29
*129 TAP_TAPCELL_ROW_9_30
*130 TAP_TAPCELL_ROW_9_31
*131 _2_
*132 _3_
*133 _4_
*134 _5_
*135 _6_
*136 _7_
*137 input1
*138 input2
*139 input3
*140 input4
*141 output5
*142 output6
*143 output7
*144 output8

*PORTS
A[0] I
A[1] I
B[0] I
B[1] I
P[0] O
P[1] O
P[2] O
P[3] O

*D_NET *1 0.000532809
*CONN
*P A[0] I
*I *137:A I *D sky130_fd_sc_hd__buf_1
*CAP
1 A[0] 0.000255159
2 *137:A 0.000255159
3 *137:A *138:A 2.24901e-05
*RES
1 A[0] *137:A 6.8343 
*END

*D_NET *2 0.000506303
*CONN
*P A[1] I
*I *138:A I *D sky130_fd_sc_hd__buf_1
*CAP
1 A[1] 0.000227653
2 *138:A 0.000227653
3 *138:A P[3] 2.85068e-05
4 *137:A *138:A 2.24901e-05
*RES
1 A[1] *138:A 5.35677 
*END

*D_NET *3 0.000641155
*CONN
*P B[0] I
*I *139:A I *D sky130_fd_sc_hd__buf_1
*CAP
1 B[0] 0.000305759
2 *139:A 0.000305759
3 *139:A P[3] 2.96366e-05
*RES
1 B[0] *139:A 7.8543 
*END

*D_NET *4 0.000569958
*CONN
*P B[1] I
*I *140:A I *D sky130_fd_sc_hd__buf_1
*CAP
1 B[1] 0.000200872
2 *140:A 0.000200872
3 *140:A P[1] 8.28789e-05
4 *140:A P[2] 8.53361e-05
*RES
1 B[1] *140:A 6.12177 
*END

*D_NET *5 0.000460569
*CONN
*P P[0] O
*I *141:X O *D sky130_fd_sc_hd__buf_2
*CAP
1 P[0] 0.000187966
2 *141:X 0.000187966
3 P[0] P[1] 8.4638e-05
*RES
1 *141:X P[0] 4.90503 
*END

*D_NET *6 0.000476594
*CONN
*P P[1] O
*I *142:X O *D sky130_fd_sc_hd__buf_2
*CAP
1 P[1] 0.000148683
2 *142:X 0.000148683
3 P[1] P[2] 0
4 P[1] *142:A 1.17114e-05
5 P[0] P[1] 8.4638e-05
6 *140:A P[1] 8.28789e-05
*RES
1 *142:X P[1] 4.90503 
*END

*D_NET *7 0.000584034
*CONN
*P P[2] O
*I *143:X O *D sky130_fd_sc_hd__buf_2
*CAP
1 P[2] 0.000249349
2 *143:X 0.000249349
3 P[1] P[2] 0
4 *140:A P[2] 8.53361e-05
*RES
1 *143:X P[2] 5.92503 
*END

*D_NET *8 0.000661148
*CONN
*P P[3] O
*I *144:X O *D sky130_fd_sc_hd__buf_2
*CAP
1 P[3] 0.000301502
2 *144:X 0.000301502
3 *138:A P[3] 2.85068e-05
4 *139:A P[3] 2.96366e-05
*RES
1 *144:X P[3] 7.1793 
*END

*D_NET *11 0.00235349
*CONN
*I *135:C I *D sky130_fd_sc_hd__and3_1
*I *134:B I *D sky130_fd_sc_hd__nand2_1
*I *133:A I *D sky130_fd_sc_hd__inv_2
*I *132:Y O *D sky130_fd_sc_hd__nand4_2
*CAP
1 *135:C 3.68396e-05
2 *134:B 0.000134314
3 *133:A 0.00024689
4 *132:Y 0
5 *11:17 0.000599557
6 *11:4 0.000675293
7 *133:A *13:16 4.82919e-05
8 *134:B *14:21 8.52883e-05
9 *135:C *16:8 1.79408e-05
10 *135:C *16:10 3.75126e-05
11 *11:17 *131:A 0.000201079
12 *11:17 *132:A 0.000173375
13 *11:17 *13:16 4.7662e-05
14 *11:17 *16:10 4.94457e-05
*RES
1 *132:Y *11:4 1.6 
2 *11:4 *133:A 5.515 
3 *11:4 *11:17 6.15 
4 *11:17 *134:B 7.775 
5 *11:17 *135:C 2.11 
*END

*D_NET *12 0.000977933
*CONN
*I *136:C I *D sky130_fd_sc_hd__and3_1
*I *131:Y O *D sky130_fd_sc_hd__nand2_1
*CAP
1 *136:C 0.000319267
2 *131:Y 0.000319267
3 *136:C *135:B 0.000150231
4 *136:C *136:A 0.000135002
5 *136:C *136:B 5.58866e-06
6 *136:C *13:16 4.85763e-05
*RES
1 *131:Y *136:C 12.33 
*END

*D_NET *13 0.00300265
*CONN
*I *132:D I *D sky130_fd_sc_hd__nand4_2
*I *135:B I *D sky130_fd_sc_hd__and3_1
*I *131:B I *D sky130_fd_sc_hd__nand2_1
*I *137:X O *D sky130_fd_sc_hd__buf_1
*CAP
1 *132:D 0
2 *135:B 7.35544e-05
3 *131:B 2.7024e-05
4 *137:X 0.000806186
5 *13:16 0.000375058
6 *13:10 0.00108067
7 *131:B *132:A 3.13354e-05
8 *135:B *132:A 5.19106e-05
9 *135:B *16:10 2.86876e-05
10 *13:10 *132:C 6.5525e-05
11 *13:16 *131:A 6.07312e-05
12 *13:16 *132:A 0.000101677
13 *13:16 *132:C 5.53249e-06
14 *13:16 *15:12 0
15 *133:A *13:16 4.82919e-05
16 *136:C *135:B 0.000150231
17 *136:C *13:16 4.85763e-05
18 *11:17 *13:16 4.7662e-05
*RES
1 *137:X *13:10 13.68 
2 *13:10 *13:16 6.86 
3 *13:16 *131:B 2.215 
4 *13:16 *135:B 3.79 
5 *13:10 *132:D 3.6 
*END

*D_NET *14 0.00332641
*CONN
*I *136:B I *D sky130_fd_sc_hd__and3_1
*I *134:A I *D sky130_fd_sc_hd__nand2_1
*I *132:C I *D sky130_fd_sc_hd__nand4_2
*I *138:X O *D sky130_fd_sc_hd__buf_1
*CAP
1 *136:B 0.0003229
2 *134:A 2.09808e-05
3 *132:C 9.22098e-05
4 *138:X 0.000673329
5 *14:21 0.000813948
6 *14:6 0.00123561
7 *132:C *15:12 4.18603e-06
8 *136:B *143:A 1.31242e-06
9 *134:B *14:21 8.52883e-05
10 *136:C *136:B 5.58866e-06
11 *13:10 *132:C 6.5525e-05
12 *13:16 *132:C 5.53249e-06
*RES
1 *138:X *14:6 8.95 
2 *14:6 *132:C 6.98 
3 *14:6 *14:21 6.675 
4 *14:21 *134:A 1.96 
5 *14:21 *136:B 10.01 
*END

*D_NET *15 0.00220508
*CONN
*I *131:A I *D sky130_fd_sc_hd__nand2_1
*I *132:B I *D sky130_fd_sc_hd__nand4_2
*I *139:X O *D sky130_fd_sc_hd__buf_1
*CAP
1 *131:A 6.21904e-05
2 *132:B 0
3 *139:X 0.000872767
4 *15:12 0.000934957
5 *131:A *132:A 6.91724e-05
6 *132:C *15:12 4.18603e-06
7 *11:17 *131:A 0.000201079
8 *13:16 *131:A 6.07312e-05
9 *13:16 *15:12 0
*RES
1 *139:X *15:12 15.62 
2 *15:12 *132:B 1.6 
3 *15:12 *131:A 4.15 
*END

*D_NET *16 0.0035878
*CONN
*I *136:A I *D sky130_fd_sc_hd__and3_1
*I *135:A I *D sky130_fd_sc_hd__and3_1
*I *132:A I *D sky130_fd_sc_hd__nand4_2
*I *140:X O *D sky130_fd_sc_hd__buf_1
*CAP
1 *136:A 0.000183153
2 *135:A 0
3 *132:A 6.89612e-05
4 *140:X 0.00052126
5 *16:10 8.63937e-05
6 *16:8 0.000721846
7 *16:8 *142:A 0.00131013
8 *131:A *132:A 6.91724e-05
9 *131:B *132:A 3.13354e-05
10 *135:B *132:A 5.19106e-05
11 *135:B *16:10 2.86876e-05
12 *135:C *16:8 1.79408e-05
13 *135:C *16:10 3.75126e-05
14 *136:C *136:A 0.000135002
15 *11:17 *132:A 0.000173375
16 *11:17 *16:10 4.94457e-05
17 *13:16 *132:A 0.000101677
*RES
1 *140:X *16:8 14.83 
2 *16:8 *16:10 0.795 
3 *16:10 *132:A 4.855 
4 *16:10 *135:A 1.6 
5 *16:8 *136:A 8.615 
*END

*D_NET *17 0.00179061
*CONN
*I *141:A I *D sky130_fd_sc_hd__buf_2
*I *134:Y O *D sky130_fd_sc_hd__nand2_1
*CAP
1 *141:A 0.000895307
2 *134:Y 0.000895307
*RES
1 *134:Y *141:A 20.67 
*END

*D_NET *18 0.00313101
*CONN
*I *142:A I *D sky130_fd_sc_hd__buf_2
*I *135:X O *D sky130_fd_sc_hd__and3_1
*CAP
1 *142:A 0.000904584
2 *135:X 0.000904584
3 P[1] *142:A 1.17114e-05
4 *16:8 *142:A 0.00131013
*RES
1 *135:X *142:A 20.415 
*END

*D_NET *19 0.00185401
*CONN
*I *143:A I *D sky130_fd_sc_hd__buf_2
*I *136:X O *D sky130_fd_sc_hd__and3_1
*CAP
1 *143:A 0.000926347
2 *136:X 0.000926347
3 *136:B *143:A 1.31242e-06
*RES
1 *136:X *143:A 15.065 
*END

*D_NET *20 0.000380129
*CONN
*I *144:A I *D sky130_fd_sc_hd__buf_2
*I *133:Y O *D sky130_fd_sc_hd__inv_2
*CAP
1 *144:A 0.000190064
2 *133:Y 0.000190064
*RES
1 *133:Y *144:A 6.065 
*END
