*SPEF "ieee 1481-1999"
*DESIGN "SarsaNada_e6"
*DATE "11:45:26 Friday September 12, 2025"
*VENDOR "The OpenROAD Project"
*PROGRAM "OpenROAD"
*VERSION "edf00dff99f6c40d67a30c0e22a8191c5d2ed9d6"
*DESIGN_FLOW "NAME_SCOPE LOCAL" "PIN_CAP NONE"
*DIVIDER /
*DELIMITER :
*BUS_DELIMITER []
*T_UNIT 1 NS
*C_UNIT 1 PF
*R_UNIT 1 OHM
*L_UNIT 1 HENRY

*NAME_MAP
*1 A[0]
*2 A[1]
*3 B[0]
*4 B[1]
*5 P[0]
*6 P[1]
*7 P[2]
*8 P[3]
*11 _0_
*12 _1_
*13 _2_
*14 net1
*15 net2
*16 net3
*17 net4
*18 net5
*19 net6
*20 net7
*21 net8
*22 FILLER_0_15
*23 FILLER_0_27
*24 FILLER_0_29
*25 FILLER_0_3
*26 FILLER_0_41
*27 FILLER_0_49
*28 FILLER_0_55
*29 FILLER_0_57
*30 FILLER_0_69
*31 FILLER_1_15
*32 FILLER_1_27
*33 FILLER_1_3
*34 FILLER_1_39
*35 FILLER_1_51
*36 FILLER_1_55
*37 FILLER_1_57
*38 FILLER_1_69
*39 FILLER_2_15
*40 FILLER_2_27
*41 FILLER_2_29
*42 FILLER_2_3
*43 FILLER_2_41
*44 FILLER_2_53
*45 FILLER_2_65
*46 FILLER_2_77
*47 FILLER_3_15
*48 FILLER_3_27
*49 FILLER_3_3
*50 FILLER_3_39
*51 FILLER_3_51
*52 FILLER_3_55
*53 FILLER_3_57
*54 FILLER_3_69
*55 FILLER_4_18
*56 FILLER_4_26
*57 FILLER_4_29
*58 FILLER_4_35
*59 FILLER_4_41
*60 FILLER_4_53
*61 FILLER_4_6
*62 FILLER_4_65
*63 FILLER_4_77
*64 FILLER_5_25
*65 FILLER_5_29
*66 FILLER_5_33
*67 FILLER_5_45
*68 FILLER_5_53
*69 FILLER_5_57
*70 FILLER_5_69
*71 FILLER_5_7
*72 FILLER_6_18
*73 FILLER_6_26
*74 FILLER_6_29
*75 FILLER_6_41
*76 FILLER_6_53
*77 FILLER_6_6
*78 FILLER_6_65
*79 FILLER_6_77
*80 FILLER_7_18
*81 FILLER_7_30
*82 FILLER_7_42
*83 FILLER_7_54
*84 FILLER_7_57
*85 FILLER_7_6
*86 FILLER_7_69
*87 FILLER_8_11
*88 FILLER_8_20
*89 FILLER_8_3
*90 FILLER_8_38
*91 FILLER_8_50
*92 FILLER_8_62
*93 FILLER_8_74
*94 FILLER_8_80
*95 FILLER_9_19
*96 FILLER_9_27
*97 FILLER_9_29
*98 FILLER_9_37
*99 FILLER_9_42
*100 FILLER_9_48
*101 FILLER_9_57
*102 FILLER_9_69
*103 FILLER_9_7
*104 PHY_EDGE_ROW_0_Left_10
*105 PHY_EDGE_ROW_0_Right_0
*106 PHY_EDGE_ROW_1_Left_11
*107 PHY_EDGE_ROW_1_Right_1
*108 PHY_EDGE_ROW_2_Left_12
*109 PHY_EDGE_ROW_2_Right_2
*110 PHY_EDGE_ROW_3_Left_13
*111 PHY_EDGE_ROW_3_Right_3
*112 PHY_EDGE_ROW_4_Left_14
*113 PHY_EDGE_ROW_4_Right_4
*114 PHY_EDGE_ROW_5_Left_15
*115 PHY_EDGE_ROW_5_Right_5
*116 PHY_EDGE_ROW_6_Left_16
*117 PHY_EDGE_ROW_6_Right_6
*118 PHY_EDGE_ROW_7_Left_17
*119 PHY_EDGE_ROW_7_Right_7
*120 PHY_EDGE_ROW_8_Left_18
*121 PHY_EDGE_ROW_8_Right_8
*122 PHY_EDGE_ROW_9_Left_19
*123 PHY_EDGE_ROW_9_Right_9
*124 TAP_TAPCELL_ROW_0_20
*125 TAP_TAPCELL_ROW_0_21
*126 TAP_TAPCELL_ROW_1_22
*127 TAP_TAPCELL_ROW_2_23
*128 TAP_TAPCELL_ROW_3_24
*129 TAP_TAPCELL_ROW_4_25
*130 TAP_TAPCELL_ROW_5_26
*131 TAP_TAPCELL_ROW_6_27
*132 TAP_TAPCELL_ROW_7_28
*133 TAP_TAPCELL_ROW_8_29
*134 TAP_TAPCELL_ROW_9_30
*135 TAP_TAPCELL_ROW_9_31
*136 _3_
*137 _4_
*138 _5_
*139 _6_
*140 _7_
*141 _8_
*142 _9_
*143 input1
*144 input2
*145 input3
*146 input4
*147 output5
*148 output6
*149 output7
*150 output8

*PORTS
A[0] I
A[1] I
B[0] I
B[1] I
P[0] O
P[1] O
P[2] O
P[3] O

*D_NET *1 0.000519961
*CONN
*P A[0] I
*I *143:A I *D sky130_fd_sc_hd__buf_1
*CAP
1 A[0] 0.000234299
2 *143:A 0.000234299
3 *143:A P[0] 2.87684e-05
4 *143:A P[3] 0
5 *143:A *139:B1 0
6 *143:A *145:A 2.25951e-05
*RES
1 A[0] *143:A 18.73 
*END

*D_NET *2 0.000688268
*CONN
*P A[1] I
*I *144:A I *D sky130_fd_sc_hd__buf_1
*CAP
1 A[1] 0.000329138
2 *144:A 0.000329138
3 *144:A P[0] 2.99915e-05
*RES
1 A[1] *144:A 21.6946 
*END

*D_NET *3 0.000576861
*CONN
*P B[0] I
*I *145:A I *D sky130_fd_sc_hd__buf_1
*CAP
1 B[0] 0.000262749
2 *145:A 0.000262749
3 *145:A P[3] 2.87684e-05
4 *143:A *145:A 2.25951e-05
*RES
1 B[0] *145:A 20.4803 
*END

*D_NET *4 0.00101248
*CONN
*P B[1] I
*I *146:A I *D sky130_fd_sc_hd__buf_1
*CAP
1 B[1] 0.000506242
2 *146:A 0.000506242
3 *146:A P[1] 0
4 *146:A *148:A 0
*RES
1 B[1] *146:A 23.8714 
*END

*D_NET *5 0.000725588
*CONN
*P P[0] O
*I *147:X O *D sky130_fd_sc_hd__buf_2
*CAP
1 P[0] 0.000333414
2 *147:X 0.000333414
3 *143:A P[0] 2.87684e-05
4 *144:A P[0] 2.99915e-05
*RES
1 *147:X P[0] 20.891 
*END

*D_NET *6 0.000954247
*CONN
*P P[1] O
*I *148:X O *D sky130_fd_sc_hd__buf_2
*CAP
1 P[1] 0.000477123
2 *148:X 0.000477123
3 *146:A P[1] 0
*RES
1 *148:X P[1] 23.2643 
*END

*D_NET *7 0.000937294
*CONN
*P P[2] O
*I *149:X O *D sky130_fd_sc_hd__buf_2
*CAP
1 P[2] 0.000468647
2 *149:X 0.000468647
*RES
1 *149:X P[2] 22.3 
*END

*D_NET *8 0.000663776
*CONN
*P P[3] O
*I *150:X O *D sky130_fd_sc_hd__buf_2
*CAP
1 P[3] 0.000287891
2 *150:X 0.000287891
3 P[3] *150:A 5.92267e-05
4 *143:A P[3] 0
5 *145:A P[3] 2.87684e-05
*RES
1 *150:X P[3] 19.4092 
*END

*D_NET *11 0.000109613
*CONN
*I *139:A2 I *D sky130_fd_sc_hd__a21o_1
*I *138:X O *D sky130_fd_sc_hd__o21ba_1
*CAP
1 *139:A2 7.34995e-06
2 *138:X 7.34995e-06
3 *139:A2 *136:A 1.33343e-05
4 *139:A2 *138:B1_N 5.71472e-05
5 *139:A2 *139:A1 2.44318e-05
*RES
1 *138:X *139:A2 19.1357 
*END

*D_NET *12 0.000389463
*CONN
*I *141:B I *D sky130_fd_sc_hd__nor2_1
*I *140:Y O *D sky130_fd_sc_hd__a22oi_1
*CAP
1 *141:B 0.000166262
2 *140:Y 0.000166262
3 *141:B *140:A1 1.11983e-05
4 *141:B *140:A2 3.85373e-05
5 *141:B *148:A 7.20217e-06
*RES
1 *140:Y *141:B 22.3143 
*END

*D_NET *13 0.000871704
*CONN
*I *142:C I *D sky130_fd_sc_hd__and3_1
*I *136:Y O *D sky130_fd_sc_hd__nand2_1
*CAP
1 *142:C 0.000428183
2 *136:Y 0.000428183
3 *142:C *136:A 1.28239e-05
4 *142:C *142:B 2.51343e-06
*RES
1 *136:Y *142:C 33.0464 
*END

*D_NET *14 0.00399785
*CONN
*I *140:B2 I *D sky130_fd_sc_hd__a22oi_1
*I *137:D I *D sky130_fd_sc_hd__and4_1
*I *138:A2 I *D sky130_fd_sc_hd__o21ba_1
*I *136:B I *D sky130_fd_sc_hd__nand2_1
*I *143:X O *D sky130_fd_sc_hd__buf_1
*CAP
1 *140:B2 5.71147e-05
2 *137:D 6.61118e-05
3 *138:A2 0
4 *136:B 0.000182505
5 *143:X 0.000633764
6 *14:32 0.000303492
7 *14:12 0.000316836
8 *14:8 0.000948361
9 *136:B *136:A 0.000204119
10 *136:B *138:B1_N 1.3701e-05
11 *137:D *137:C 1.55885e-05
12 *137:D *140:A1 7.03295e-05
13 *137:D *140:A2 0.000228558
14 *137:D *15:31 9.90367e-05
15 *137:D *16:36 9.90431e-05
16 *140:B2 *140:A1 0.000170964
17 *140:B2 *140:A2 0.000302728
18 *14:12 *137:C 0.000128941
19 *14:12 *15:31 0
20 *14:12 *16:12 0
21 *14:12 *17:20 5.80706e-06
22 *14:32 *137:C 0.000150847
23 *14:32 *16:12 0
*RES
1 *143:X *14:8 20.9071 
2 *14:8 *14:12 7.66071 
3 *14:12 *136:B 13.5679 
4 *14:12 *138:A2 9.3 
5 *14:8 *14:32 8.26786 
6 *14:32 *137:D 12.3 
7 *14:32 *140:B2 12.3 
*END

*D_NET *15 0.00574262
*CONN
*I *138:B1_N I *D sky130_fd_sc_hd__o21ba_1
*I *140:A2 I *D sky130_fd_sc_hd__a22oi_1
*I *137:B I *D sky130_fd_sc_hd__and4_1
*I *142:A I *D sky130_fd_sc_hd__and3_1
*I *144:X O *D sky130_fd_sc_hd__buf_1
*CAP
1 *138:B1_N 0.000111047
2 *140:A2 0.00052208
3 *137:B 0
4 *142:A 0.000654767
5 *144:X 0.000276752
6 *15:31 0.000836006
7 *15:14 0.000968693
8 *15:12 0.000387798
9 *138:B1_N *136:A 4.88637e-05
10 *138:B1_N *139:A1 1.74352e-05
11 *140:A2 *140:A1 0.00010987
12 *142:A *142:B 5.75908e-05
13 *142:A *17:20 9.68208e-05
14 *15:12 *147:A 0.000232399
15 *15:31 *139:B1 0.000394705
16 *15:31 *16:12 0.000143484
17 *15:31 *16:36 2.05938e-05
18 *15:31 *17:20 0
19 *15:31 *21:21 0.00012401
20 *136:B *138:B1_N 1.3701e-05
21 *137:D *140:A2 0.000228558
22 *137:D *15:31 9.90367e-05
23 *139:A2 *138:B1_N 5.71472e-05
24 *140:B2 *140:A2 0.000302728
25 *141:B *140:A2 3.85373e-05
26 *14:12 *15:31 0
*RES
1 *144:X *15:12 23.7643 
2 *15:12 *15:14 4.5 
3 *15:14 *142:A 25.8179 
4 *15:14 *15:31 12.6607 
5 *15:31 *137:B 9.3 
6 *15:31 *140:A2 17.4875 
7 *15:12 *138:B1_N 11.9071 
*END

*D_NET *16 0.0042525
*CONN
*I *140:A1 I *D sky130_fd_sc_hd__a22oi_1
*I *137:A I *D sky130_fd_sc_hd__and4_1
*I *136:A I *D sky130_fd_sc_hd__nand2_1
*I *139:A1 I *D sky130_fd_sc_hd__a21o_1
*I *145:X O *D sky130_fd_sc_hd__buf_1
*CAP
1 *140:A1 0.000234501
2 *137:A 0
3 *136:A 0.000381398
4 *139:A1 6.54389e-05
5 *145:X 0.000421726
6 *16:36 0.000361515
7 *16:12 0.000677375
8 *16:8 0.000779279
9 *140:A1 *137:C 0.000244176
10 *16:8 *141:A 9.46929e-05
11 *16:36 *137:C 4.59075e-05
12 *136:B *136:A 0.000204119
13 *137:D *140:A1 7.03295e-05
14 *137:D *16:36 9.90431e-05
15 *138:B1_N *136:A 4.88637e-05
16 *138:B1_N *139:A1 1.74352e-05
17 *139:A2 *136:A 1.33343e-05
18 *139:A2 *139:A1 2.44318e-05
19 *140:A2 *140:A1 0.00010987
20 *140:B2 *140:A1 0.000170964
21 *141:B *140:A1 1.11983e-05
22 *142:C *136:A 1.28239e-05
23 *14:12 *16:12 0
24 *14:32 *16:12 0
25 *15:31 *16:12 0.000143484
26 *15:31 *16:36 2.05938e-05
*RES
1 *145:X *16:8 18.8536 
2 *16:8 *16:12 9.48214 
3 *16:12 *139:A1 10.2464 
4 *16:12 *136:A 16.4429 
5 *16:8 *16:36 7.08929 
6 *16:36 *137:A 9.3 
7 *16:36 *140:A1 16.05 
*END

*D_NET *17 0.00485656
*CONN
*I *140:B1 I *D sky130_fd_sc_hd__a22oi_1
*I *142:B I *D sky130_fd_sc_hd__and3_1
*I *137:C I *D sky130_fd_sc_hd__and4_1
*I *138:A1 I *D sky130_fd_sc_hd__o21ba_1
*I *146:X O *D sky130_fd_sc_hd__buf_1
*CAP
1 *140:B1 0
2 *142:B 0.000233723
3 *137:C 0.000493374
4 *138:A1 0
5 *146:X 0.000636131
6 *17:20 0.000813296
7 *17:14 0.000924676
8 *17:10 0.00100716
9 *17:10 *141:A 0
10 *17:10 *148:A 0
11 *17:14 *141:A 0
12 *137:D *137:C 1.55885e-05
13 *140:A1 *137:C 0.000244176
14 *142:A *142:B 5.75908e-05
15 *142:A *17:20 9.68208e-05
16 *142:C *142:B 2.51343e-06
17 *14:12 *137:C 0.000128941
18 *14:12 *17:20 5.80706e-06
19 *14:32 *137:C 0.000150847
20 *15:31 *17:20 0
21 *16:36 *137:C 4.59075e-05
*RES
1 *146:X *17:10 21.6214 
2 *17:10 *17:14 13.4286 
3 *17:14 *17:20 9.44643 
4 *17:20 *138:A1 13.8 
5 *17:20 *137:C 25.6571 
6 *17:14 *142:B 12.3 
7 *17:10 *140:B1 13.8 
*END

*D_NET *18 0.000395328
*CONN
*I *147:A I *D sky130_fd_sc_hd__buf_2
*I *139:X O *D sky130_fd_sc_hd__a21o_1
*CAP
1 *147:A 8.14645e-05
2 *139:X 8.14645e-05
3 *15:12 *147:A 0.000232399
*RES
1 *139:X *147:A 20.7786 
*END

*D_NET *19 0.000331985
*CONN
*I *148:A I *D sky130_fd_sc_hd__buf_2
*I *141:Y O *D sky130_fd_sc_hd__nor2_1
*CAP
1 *148:A 0.000162392
2 *141:Y 0.000162392
3 *141:B *148:A 7.20217e-06
4 *146:A *148:A 0
5 *17:10 *148:A 0
*RES
1 *141:Y *148:A 30.0821 
*END

*D_NET *20 0.0014306
*CONN
*I *149:A I *D sky130_fd_sc_hd__buf_2
*I *142:X O *D sky130_fd_sc_hd__and3_1
*CAP
1 *149:A 0.000715301
2 *142:X 0.000715301
*RES
1 *142:X *149:A 39.0107 
*END

*D_NET *21 0.0035159
*CONN
*I *141:A I *D sky130_fd_sc_hd__nor2_1
*I *139:B1 I *D sky130_fd_sc_hd__a21o_1
*I *150:A I *D sky130_fd_sc_hd__buf_2
*I *137:X O *D sky130_fd_sc_hd__and4_1
*CAP
1 *141:A 0.000726396
2 *139:B1 0.000190009
3 *150:A 0.000429661
4 *137:X 0
5 *21:21 0.000991974
6 *21:4 0.000505231
7 P[3] *150:A 5.92267e-05
8 *143:A *139:B1 0
9 *15:31 *139:B1 0.000394705
10 *15:31 *21:21 0.00012401
11 *16:8 *141:A 9.46929e-05
12 *17:10 *141:A 0
13 *17:14 *141:A 0
*RES
1 *137:X *21:4 9.3 
2 *21:4 *150:A 24.7643 
3 *21:4 *21:21 6.14286 
4 *21:21 *139:B1 18.7821 
5 *21:21 *141:A 34.2107 
*END
