*SPEF "ieee 1481-1999"
*DESIGN "SarsaNada_e8"
*DATE "11:47:47 Friday September 12, 2025"
*VENDOR "The OpenROAD Project"
*PROGRAM "OpenROAD"
*VERSION "edf00dff99f6c40d67a30c0e22a8191c5d2ed9d6"
*DESIGN_FLOW "NAME_SCOPE LOCAL" "PIN_CAP NONE"
*DIVIDER /
*DELIMITER :
*BUS_DELIMITER []
*T_UNIT 1 NS
*C_UNIT 1 PF
*R_UNIT 1 OHM
*L_UNIT 1 HENRY

*NAME_MAP
*1 A[0]
*2 A[1]
*3 B[0]
*4 B[1]
*5 P[0]
*6 P[1]
*7 P[2]
*8 P[3]
*11 _0_
*12 _1_
*13 net1
*14 net2
*15 net3
*16 net4
*17 net5
*18 net6
*19 net7
*20 net8
*21 ANTENNA_1
*22 ANTENNA_2
*23 FILLER_0_109
*24 FILLER_0_113
*25 FILLER_0_125
*26 FILLER_0_137
*27 FILLER_0_141
*28 FILLER_0_15
*29 FILLER_0_153
*30 FILLER_0_165
*31 FILLER_0_169
*32 FILLER_0_181
*33 FILLER_0_193
*34 FILLER_0_197
*35 FILLER_0_209
*36 FILLER_0_221
*37 FILLER_0_225
*38 FILLER_0_237
*39 FILLER_0_249
*40 FILLER_0_253
*41 FILLER_0_265
*42 FILLER_0_27
*43 FILLER_0_277
*44 FILLER_0_281
*45 FILLER_0_29
*46 FILLER_0_293
*47 FILLER_0_3
*48 FILLER_0_305
*49 FILLER_0_309
*50 FILLER_0_321
*51 FILLER_0_333
*52 FILLER_0_337
*53 FILLER_0_349
*54 FILLER_0_361
*55 FILLER_0_365
*56 FILLER_0_377
*57 FILLER_0_389
*58 FILLER_0_393
*59 FILLER_0_405
*60 FILLER_0_41
*61 FILLER_0_53
*62 FILLER_0_57
*63 FILLER_0_69
*64 FILLER_0_81
*65 FILLER_0_85
*66 FILLER_0_97
*67 FILLER_10_109
*68 FILLER_10_121
*69 FILLER_10_133
*70 FILLER_10_139
*71 FILLER_10_141
*72 FILLER_10_15
*73 FILLER_10_153
*74 FILLER_10_165
*75 FILLER_10_177
*76 FILLER_10_189
*77 FILLER_10_195
*78 FILLER_10_197
*79 FILLER_10_209
*80 FILLER_10_221
*81 FILLER_10_233
*82 FILLER_10_245
*83 FILLER_10_251
*84 FILLER_10_253
*85 FILLER_10_265
*86 FILLER_10_27
*87 FILLER_10_277
*88 FILLER_10_289
*89 FILLER_10_29
*90 FILLER_10_3
*91 FILLER_10_301
*92 FILLER_10_307
*93 FILLER_10_309
*94 FILLER_10_321
*95 FILLER_10_333
*96 FILLER_10_345
*97 FILLER_10_357
*98 FILLER_10_363
*99 FILLER_10_365
*100 FILLER_10_377
*101 FILLER_10_389
*102 FILLER_10_401
*103 FILLER_10_41
*104 FILLER_10_53
*105 FILLER_10_65
*106 FILLER_10_77
*107 FILLER_10_83
*108 FILLER_10_85
*109 FILLER_10_97
*110 FILLER_11_105
*111 FILLER_11_111
*112 FILLER_11_113
*113 FILLER_11_125
*114 FILLER_11_137
*115 FILLER_11_149
*116 FILLER_11_15
*117 FILLER_11_161
*118 FILLER_11_167
*119 FILLER_11_169
*120 FILLER_11_181
*121 FILLER_11_193
*122 FILLER_11_205
*123 FILLER_11_217
*124 FILLER_11_223
*125 FILLER_11_225
*126 FILLER_11_237
*127 FILLER_11_249
*128 FILLER_11_261
*129 FILLER_11_27
*130 FILLER_11_273
*131 FILLER_11_279
*132 FILLER_11_281
*133 FILLER_11_293
*134 FILLER_11_3
*135 FILLER_11_305
*136 FILLER_11_317
*137 FILLER_11_329
*138 FILLER_11_335
*139 FILLER_11_337
*140 FILLER_11_349
*141 FILLER_11_361
*142 FILLER_11_373
*143 FILLER_11_385
*144 FILLER_11_39
*145 FILLER_11_391
*146 FILLER_11_393
*147 FILLER_11_405
*148 FILLER_11_51
*149 FILLER_11_55
*150 FILLER_11_57
*151 FILLER_11_69
*152 FILLER_11_81
*153 FILLER_11_93
*154 FILLER_12_109
*155 FILLER_12_121
*156 FILLER_12_133
*157 FILLER_12_139
*158 FILLER_12_141
*159 FILLER_12_15
*160 FILLER_12_153
*161 FILLER_12_165
*162 FILLER_12_177
*163 FILLER_12_189
*164 FILLER_12_195
*165 FILLER_12_197
*166 FILLER_12_209
*167 FILLER_12_221
*168 FILLER_12_233
*169 FILLER_12_245
*170 FILLER_12_251
*171 FILLER_12_253
*172 FILLER_12_265
*173 FILLER_12_27
*174 FILLER_12_277
*175 FILLER_12_289
*176 FILLER_12_29
*177 FILLER_12_3
*178 FILLER_12_301
*179 FILLER_12_307
*180 FILLER_12_309
*181 FILLER_12_321
*182 FILLER_12_333
*183 FILLER_12_345
*184 FILLER_12_357
*185 FILLER_12_363
*186 FILLER_12_365
*187 FILLER_12_377
*188 FILLER_12_389
*189 FILLER_12_401
*190 FILLER_12_41
*191 FILLER_12_53
*192 FILLER_12_65
*193 FILLER_12_77
*194 FILLER_12_83
*195 FILLER_12_85
*196 FILLER_12_97
*197 FILLER_13_105
*198 FILLER_13_111
*199 FILLER_13_113
*200 FILLER_13_125
*201 FILLER_13_137
*202 FILLER_13_149
*203 FILLER_13_15
*204 FILLER_13_161
*205 FILLER_13_167
*206 FILLER_13_169
*207 FILLER_13_181
*208 FILLER_13_193
*209 FILLER_13_205
*210 FILLER_13_217
*211 FILLER_13_223
*212 FILLER_13_225
*213 FILLER_13_237
*214 FILLER_13_249
*215 FILLER_13_261
*216 FILLER_13_27
*217 FILLER_13_273
*218 FILLER_13_279
*219 FILLER_13_281
*220 FILLER_13_293
*221 FILLER_13_3
*222 FILLER_13_305
*223 FILLER_13_317
*224 FILLER_13_329
*225 FILLER_13_335
*226 FILLER_13_337
*227 FILLER_13_349
*228 FILLER_13_361
*229 FILLER_13_373
*230 FILLER_13_385
*231 FILLER_13_39
*232 FILLER_13_391
*233 FILLER_13_393
*234 FILLER_13_405
*235 FILLER_13_51
*236 FILLER_13_55
*237 FILLER_13_57
*238 FILLER_13_69
*239 FILLER_13_81
*240 FILLER_13_93
*241 FILLER_14_109
*242 FILLER_14_121
*243 FILLER_14_133
*244 FILLER_14_139
*245 FILLER_14_141
*246 FILLER_14_15
*247 FILLER_14_153
*248 FILLER_14_165
*249 FILLER_14_177
*250 FILLER_14_189
*251 FILLER_14_195
*252 FILLER_14_197
*253 FILLER_14_209
*254 FILLER_14_221
*255 FILLER_14_233
*256 FILLER_14_245
*257 FILLER_14_251
*258 FILLER_14_253
*259 FILLER_14_265
*260 FILLER_14_27
*261 FILLER_14_277
*262 FILLER_14_289
*263 FILLER_14_29
*264 FILLER_14_3
*265 FILLER_14_301
*266 FILLER_14_307
*267 FILLER_14_309
*268 FILLER_14_321
*269 FILLER_14_333
*270 FILLER_14_345
*271 FILLER_14_357
*272 FILLER_14_363
*273 FILLER_14_365
*274 FILLER_14_377
*275 FILLER_14_389
*276 FILLER_14_401
*277 FILLER_14_41
*278 FILLER_14_53
*279 FILLER_14_65
*280 FILLER_14_77
*281 FILLER_14_83
*282 FILLER_14_85
*283 FILLER_14_97
*284 FILLER_15_105
*285 FILLER_15_111
*286 FILLER_15_113
*287 FILLER_15_125
*288 FILLER_15_137
*289 FILLER_15_149
*290 FILLER_15_15
*291 FILLER_15_161
*292 FILLER_15_167
*293 FILLER_15_169
*294 FILLER_15_181
*295 FILLER_15_193
*296 FILLER_15_205
*297 FILLER_15_217
*298 FILLER_15_223
*299 FILLER_15_225
*300 FILLER_15_237
*301 FILLER_15_249
*302 FILLER_15_261
*303 FILLER_15_27
*304 FILLER_15_273
*305 FILLER_15_279
*306 FILLER_15_281
*307 FILLER_15_293
*308 FILLER_15_3
*309 FILLER_15_305
*310 FILLER_15_317
*311 FILLER_15_329
*312 FILLER_15_335
*313 FILLER_15_337
*314 FILLER_15_349
*315 FILLER_15_361
*316 FILLER_15_373
*317 FILLER_15_385
*318 FILLER_15_39
*319 FILLER_15_391
*320 FILLER_15_393
*321 FILLER_15_405
*322 FILLER_15_51
*323 FILLER_15_55
*324 FILLER_15_57
*325 FILLER_15_69
*326 FILLER_15_81
*327 FILLER_15_93
*328 FILLER_16_109
*329 FILLER_16_121
*330 FILLER_16_133
*331 FILLER_16_139
*332 FILLER_16_141
*333 FILLER_16_15
*334 FILLER_16_153
*335 FILLER_16_165
*336 FILLER_16_177
*337 FILLER_16_189
*338 FILLER_16_195
*339 FILLER_16_197
*340 FILLER_16_209
*341 FILLER_16_221
*342 FILLER_16_233
*343 FILLER_16_245
*344 FILLER_16_251
*345 FILLER_16_253
*346 FILLER_16_265
*347 FILLER_16_27
*348 FILLER_16_277
*349 FILLER_16_289
*350 FILLER_16_29
*351 FILLER_16_3
*352 FILLER_16_301
*353 FILLER_16_307
*354 FILLER_16_309
*355 FILLER_16_321
*356 FILLER_16_333
*357 FILLER_16_345
*358 FILLER_16_357
*359 FILLER_16_363
*360 FILLER_16_365
*361 FILLER_16_377
*362 FILLER_16_389
*363 FILLER_16_401
*364 FILLER_16_41
*365 FILLER_16_53
*366 FILLER_16_65
*367 FILLER_16_77
*368 FILLER_16_83
*369 FILLER_16_85
*370 FILLER_16_97
*371 FILLER_17_105
*372 FILLER_17_111
*373 FILLER_17_113
*374 FILLER_17_125
*375 FILLER_17_137
*376 FILLER_17_149
*377 FILLER_17_15
*378 FILLER_17_161
*379 FILLER_17_167
*380 FILLER_17_169
*381 FILLER_17_181
*382 FILLER_17_193
*383 FILLER_17_205
*384 FILLER_17_217
*385 FILLER_17_223
*386 FILLER_17_225
*387 FILLER_17_237
*388 FILLER_17_249
*389 FILLER_17_261
*390 FILLER_17_27
*391 FILLER_17_273
*392 FILLER_17_279
*393 FILLER_17_281
*394 FILLER_17_293
*395 FILLER_17_3
*396 FILLER_17_305
*397 FILLER_17_317
*398 FILLER_17_329
*399 FILLER_17_335
*400 FILLER_17_337
*401 FILLER_17_349
*402 FILLER_17_361
*403 FILLER_17_373
*404 FILLER_17_385
*405 FILLER_17_39
*406 FILLER_17_391
*407 FILLER_17_393
*408 FILLER_17_405
*409 FILLER_17_51
*410 FILLER_17_55
*411 FILLER_17_57
*412 FILLER_17_69
*413 FILLER_17_81
*414 FILLER_17_93
*415 FILLER_18_109
*416 FILLER_18_121
*417 FILLER_18_133
*418 FILLER_18_139
*419 FILLER_18_141
*420 FILLER_18_15
*421 FILLER_18_153
*422 FILLER_18_165
*423 FILLER_18_177
*424 FILLER_18_189
*425 FILLER_18_195
*426 FILLER_18_197
*427 FILLER_18_209
*428 FILLER_18_221
*429 FILLER_18_233
*430 FILLER_18_245
*431 FILLER_18_251
*432 FILLER_18_253
*433 FILLER_18_265
*434 FILLER_18_27
*435 FILLER_18_277
*436 FILLER_18_289
*437 FILLER_18_29
*438 FILLER_18_3
*439 FILLER_18_301
*440 FILLER_18_307
*441 FILLER_18_309
*442 FILLER_18_321
*443 FILLER_18_333
*444 FILLER_18_345
*445 FILLER_18_357
*446 FILLER_18_363
*447 FILLER_18_365
*448 FILLER_18_377
*449 FILLER_18_389
*450 FILLER_18_401
*451 FILLER_18_41
*452 FILLER_18_53
*453 FILLER_18_65
*454 FILLER_18_77
*455 FILLER_18_83
*456 FILLER_18_85
*457 FILLER_18_97
*458 FILLER_19_105
*459 FILLER_19_111
*460 FILLER_19_113
*461 FILLER_19_125
*462 FILLER_19_137
*463 FILLER_19_149
*464 FILLER_19_15
*465 FILLER_19_161
*466 FILLER_19_167
*467 FILLER_19_169
*468 FILLER_19_181
*469 FILLER_19_193
*470 FILLER_19_205
*471 FILLER_19_217
*472 FILLER_19_223
*473 FILLER_19_225
*474 FILLER_19_237
*475 FILLER_19_249
*476 FILLER_19_261
*477 FILLER_19_27
*478 FILLER_19_273
*479 FILLER_19_279
*480 FILLER_19_281
*481 FILLER_19_293
*482 FILLER_19_3
*483 FILLER_19_305
*484 FILLER_19_317
*485 FILLER_19_329
*486 FILLER_19_335
*487 FILLER_19_337
*488 FILLER_19_349
*489 FILLER_19_361
*490 FILLER_19_373
*491 FILLER_19_385
*492 FILLER_19_39
*493 FILLER_19_391
*494 FILLER_19_393
*495 FILLER_19_405
*496 FILLER_19_51
*497 FILLER_19_55
*498 FILLER_19_57
*499 FILLER_19_69
*500 FILLER_19_81
*501 FILLER_19_93
*502 FILLER_1_105
*503 FILLER_1_111
*504 FILLER_1_113
*505 FILLER_1_125
*506 FILLER_1_137
*507 FILLER_1_149
*508 FILLER_1_15
*509 FILLER_1_161
*510 FILLER_1_167
*511 FILLER_1_169
*512 FILLER_1_181
*513 FILLER_1_193
*514 FILLER_1_205
*515 FILLER_1_217
*516 FILLER_1_223
*517 FILLER_1_225
*518 FILLER_1_237
*519 FILLER_1_249
*520 FILLER_1_261
*521 FILLER_1_27
*522 FILLER_1_273
*523 FILLER_1_279
*524 FILLER_1_281
*525 FILLER_1_293
*526 FILLER_1_3
*527 FILLER_1_305
*528 FILLER_1_317
*529 FILLER_1_329
*530 FILLER_1_335
*531 FILLER_1_337
*532 FILLER_1_349
*533 FILLER_1_361
*534 FILLER_1_373
*535 FILLER_1_385
*536 FILLER_1_39
*537 FILLER_1_391
*538 FILLER_1_393
*539 FILLER_1_405
*540 FILLER_1_51
*541 FILLER_1_55
*542 FILLER_1_57
*543 FILLER_1_69
*544 FILLER_1_81
*545 FILLER_1_93
*546 FILLER_20_109
*547 FILLER_20_121
*548 FILLER_20_133
*549 FILLER_20_139
*550 FILLER_20_141
*551 FILLER_20_15
*552 FILLER_20_153
*553 FILLER_20_165
*554 FILLER_20_177
*555 FILLER_20_189
*556 FILLER_20_195
*557 FILLER_20_197
*558 FILLER_20_209
*559 FILLER_20_221
*560 FILLER_20_233
*561 FILLER_20_245
*562 FILLER_20_251
*563 FILLER_20_253
*564 FILLER_20_265
*565 FILLER_20_27
*566 FILLER_20_277
*567 FILLER_20_289
*568 FILLER_20_29
*569 FILLER_20_3
*570 FILLER_20_301
*571 FILLER_20_307
*572 FILLER_20_309
*573 FILLER_20_321
*574 FILLER_20_333
*575 FILLER_20_345
*576 FILLER_20_357
*577 FILLER_20_363
*578 FILLER_20_365
*579 FILLER_20_377
*580 FILLER_20_389
*581 FILLER_20_401
*582 FILLER_20_41
*583 FILLER_20_53
*584 FILLER_20_65
*585 FILLER_20_77
*586 FILLER_20_83
*587 FILLER_20_85
*588 FILLER_20_97
*589 FILLER_21_105
*590 FILLER_21_111
*591 FILLER_21_113
*592 FILLER_21_125
*593 FILLER_21_137
*594 FILLER_21_149
*595 FILLER_21_15
*596 FILLER_21_161
*597 FILLER_21_167
*598 FILLER_21_169
*599 FILLER_21_181
*600 FILLER_21_193
*601 FILLER_21_205
*602 FILLER_21_217
*603 FILLER_21_223
*604 FILLER_21_225
*605 FILLER_21_237
*606 FILLER_21_249
*607 FILLER_21_261
*608 FILLER_21_27
*609 FILLER_21_273
*610 FILLER_21_279
*611 FILLER_21_281
*612 FILLER_21_293
*613 FILLER_21_3
*614 FILLER_21_305
*615 FILLER_21_317
*616 FILLER_21_329
*617 FILLER_21_335
*618 FILLER_21_337
*619 FILLER_21_349
*620 FILLER_21_361
*621 FILLER_21_373
*622 FILLER_21_385
*623 FILLER_21_39
*624 FILLER_21_391
*625 FILLER_21_393
*626 FILLER_21_405
*627 FILLER_21_51
*628 FILLER_21_55
*629 FILLER_21_57
*630 FILLER_21_69
*631 FILLER_21_81
*632 FILLER_21_93
*633 FILLER_22_109
*634 FILLER_22_121
*635 FILLER_22_133
*636 FILLER_22_139
*637 FILLER_22_141
*638 FILLER_22_15
*639 FILLER_22_153
*640 FILLER_22_165
*641 FILLER_22_177
*642 FILLER_22_189
*643 FILLER_22_195
*644 FILLER_22_197
*645 FILLER_22_209
*646 FILLER_22_221
*647 FILLER_22_233
*648 FILLER_22_245
*649 FILLER_22_251
*650 FILLER_22_253
*651 FILLER_22_265
*652 FILLER_22_27
*653 FILLER_22_277
*654 FILLER_22_289
*655 FILLER_22_29
*656 FILLER_22_3
*657 FILLER_22_301
*658 FILLER_22_307
*659 FILLER_22_309
*660 FILLER_22_321
*661 FILLER_22_333
*662 FILLER_22_345
*663 FILLER_22_357
*664 FILLER_22_363
*665 FILLER_22_365
*666 FILLER_22_377
*667 FILLER_22_389
*668 FILLER_22_401
*669 FILLER_22_41
*670 FILLER_22_53
*671 FILLER_22_65
*672 FILLER_22_77
*673 FILLER_22_83
*674 FILLER_22_85
*675 FILLER_22_97
*676 FILLER_23_105
*677 FILLER_23_111
*678 FILLER_23_113
*679 FILLER_23_125
*680 FILLER_23_137
*681 FILLER_23_149
*682 FILLER_23_15
*683 FILLER_23_161
*684 FILLER_23_167
*685 FILLER_23_169
*686 FILLER_23_181
*687 FILLER_23_193
*688 FILLER_23_205
*689 FILLER_23_217
*690 FILLER_23_223
*691 FILLER_23_225
*692 FILLER_23_237
*693 FILLER_23_249
*694 FILLER_23_261
*695 FILLER_23_27
*696 FILLER_23_273
*697 FILLER_23_279
*698 FILLER_23_281
*699 FILLER_23_293
*700 FILLER_23_3
*701 FILLER_23_305
*702 FILLER_23_317
*703 FILLER_23_329
*704 FILLER_23_335
*705 FILLER_23_337
*706 FILLER_23_349
*707 FILLER_23_361
*708 FILLER_23_373
*709 FILLER_23_385
*710 FILLER_23_39
*711 FILLER_23_391
*712 FILLER_23_393
*713 FILLER_23_405
*714 FILLER_23_51
*715 FILLER_23_55
*716 FILLER_23_57
*717 FILLER_23_69
*718 FILLER_23_81
*719 FILLER_23_93
*720 FILLER_24_109
*721 FILLER_24_121
*722 FILLER_24_133
*723 FILLER_24_139
*724 FILLER_24_141
*725 FILLER_24_15
*726 FILLER_24_153
*727 FILLER_24_165
*728 FILLER_24_177
*729 FILLER_24_189
*730 FILLER_24_195
*731 FILLER_24_197
*732 FILLER_24_209
*733 FILLER_24_221
*734 FILLER_24_233
*735 FILLER_24_245
*736 FILLER_24_251
*737 FILLER_24_253
*738 FILLER_24_265
*739 FILLER_24_27
*740 FILLER_24_277
*741 FILLER_24_289
*742 FILLER_24_29
*743 FILLER_24_3
*744 FILLER_24_301
*745 FILLER_24_307
*746 FILLER_24_309
*747 FILLER_24_321
*748 FILLER_24_333
*749 FILLER_24_345
*750 FILLER_24_357
*751 FILLER_24_363
*752 FILLER_24_365
*753 FILLER_24_377
*754 FILLER_24_389
*755 FILLER_24_401
*756 FILLER_24_41
*757 FILLER_24_53
*758 FILLER_24_65
*759 FILLER_24_77
*760 FILLER_24_83
*761 FILLER_24_85
*762 FILLER_24_97
*763 FILLER_25_105
*764 FILLER_25_111
*765 FILLER_25_113
*766 FILLER_25_125
*767 FILLER_25_137
*768 FILLER_25_149
*769 FILLER_25_15
*770 FILLER_25_161
*771 FILLER_25_167
*772 FILLER_25_169
*773 FILLER_25_181
*774 FILLER_25_193
*775 FILLER_25_205
*776 FILLER_25_217
*777 FILLER_25_223
*778 FILLER_25_225
*779 FILLER_25_237
*780 FILLER_25_249
*781 FILLER_25_261
*782 FILLER_25_27
*783 FILLER_25_273
*784 FILLER_25_279
*785 FILLER_25_281
*786 FILLER_25_293
*787 FILLER_25_3
*788 FILLER_25_305
*789 FILLER_25_317
*790 FILLER_25_329
*791 FILLER_25_335
*792 FILLER_25_337
*793 FILLER_25_349
*794 FILLER_25_361
*795 FILLER_25_373
*796 FILLER_25_385
*797 FILLER_25_39
*798 FILLER_25_391
*799 FILLER_25_393
*800 FILLER_25_405
*801 FILLER_25_51
*802 FILLER_25_55
*803 FILLER_25_57
*804 FILLER_25_69
*805 FILLER_25_81
*806 FILLER_25_93
*807 FILLER_26_109
*808 FILLER_26_121
*809 FILLER_26_133
*810 FILLER_26_139
*811 FILLER_26_141
*812 FILLER_26_15
*813 FILLER_26_153
*814 FILLER_26_165
*815 FILLER_26_177
*816 FILLER_26_189
*817 FILLER_26_195
*818 FILLER_26_197
*819 FILLER_26_209
*820 FILLER_26_221
*821 FILLER_26_233
*822 FILLER_26_245
*823 FILLER_26_251
*824 FILLER_26_253
*825 FILLER_26_265
*826 FILLER_26_27
*827 FILLER_26_277
*828 FILLER_26_289
*829 FILLER_26_29
*830 FILLER_26_3
*831 FILLER_26_301
*832 FILLER_26_307
*833 FILLER_26_309
*834 FILLER_26_321
*835 FILLER_26_333
*836 FILLER_26_345
*837 FILLER_26_357
*838 FILLER_26_363
*839 FILLER_26_365
*840 FILLER_26_377
*841 FILLER_26_389
*842 FILLER_26_401
*843 FILLER_26_41
*844 FILLER_26_53
*845 FILLER_26_65
*846 FILLER_26_77
*847 FILLER_26_83
*848 FILLER_26_85
*849 FILLER_26_97
*850 FILLER_27_105
*851 FILLER_27_111
*852 FILLER_27_113
*853 FILLER_27_125
*854 FILLER_27_137
*855 FILLER_27_149
*856 FILLER_27_15
*857 FILLER_27_161
*858 FILLER_27_167
*859 FILLER_27_169
*860 FILLER_27_181
*861 FILLER_27_193
*862 FILLER_27_205
*863 FILLER_27_217
*864 FILLER_27_223
*865 FILLER_27_225
*866 FILLER_27_237
*867 FILLER_27_249
*868 FILLER_27_261
*869 FILLER_27_27
*870 FILLER_27_273
*871 FILLER_27_279
*872 FILLER_27_281
*873 FILLER_27_293
*874 FILLER_27_3
*875 FILLER_27_305
*876 FILLER_27_317
*877 FILLER_27_329
*878 FILLER_27_335
*879 FILLER_27_337
*880 FILLER_27_349
*881 FILLER_27_361
*882 FILLER_27_373
*883 FILLER_27_385
*884 FILLER_27_39
*885 FILLER_27_391
*886 FILLER_27_393
*887 FILLER_27_405
*888 FILLER_27_51
*889 FILLER_27_55
*890 FILLER_27_57
*891 FILLER_27_69
*892 FILLER_27_81
*893 FILLER_27_93
*894 FILLER_28_109
*895 FILLER_28_121
*896 FILLER_28_133
*897 FILLER_28_139
*898 FILLER_28_141
*899 FILLER_28_15
*900 FILLER_28_153
*901 FILLER_28_165
*902 FILLER_28_177
*903 FILLER_28_189
*904 FILLER_28_195
*905 FILLER_28_197
*906 FILLER_28_209
*907 FILLER_28_221
*908 FILLER_28_233
*909 FILLER_28_245
*910 FILLER_28_251
*911 FILLER_28_253
*912 FILLER_28_265
*913 FILLER_28_27
*914 FILLER_28_277
*915 FILLER_28_289
*916 FILLER_28_29
*917 FILLER_28_3
*918 FILLER_28_301
*919 FILLER_28_307
*920 FILLER_28_309
*921 FILLER_28_321
*922 FILLER_28_333
*923 FILLER_28_345
*924 FILLER_28_357
*925 FILLER_28_363
*926 FILLER_28_365
*927 FILLER_28_377
*928 FILLER_28_389
*929 FILLER_28_401
*930 FILLER_28_41
*931 FILLER_28_53
*932 FILLER_28_65
*933 FILLER_28_77
*934 FILLER_28_83
*935 FILLER_28_85
*936 FILLER_28_97
*937 FILLER_29_105
*938 FILLER_29_111
*939 FILLER_29_113
*940 FILLER_29_125
*941 FILLER_29_137
*942 FILLER_29_149
*943 FILLER_29_15
*944 FILLER_29_161
*945 FILLER_29_167
*946 FILLER_29_169
*947 FILLER_29_181
*948 FILLER_29_193
*949 FILLER_29_205
*950 FILLER_29_217
*951 FILLER_29_223
*952 FILLER_29_225
*953 FILLER_29_237
*954 FILLER_29_249
*955 FILLER_29_261
*956 FILLER_29_27
*957 FILLER_29_273
*958 FILLER_29_279
*959 FILLER_29_281
*960 FILLER_29_293
*961 FILLER_29_3
*962 FILLER_29_305
*963 FILLER_29_317
*964 FILLER_29_329
*965 FILLER_29_335
*966 FILLER_29_337
*967 FILLER_29_349
*968 FILLER_29_361
*969 FILLER_29_373
*970 FILLER_29_385
*971 FILLER_29_39
*972 FILLER_29_391
*973 FILLER_29_393
*974 FILLER_29_405
*975 FILLER_29_51
*976 FILLER_29_55
*977 FILLER_29_57
*978 FILLER_29_69
*979 FILLER_29_81
*980 FILLER_29_93
*981 FILLER_2_109
*982 FILLER_2_121
*983 FILLER_2_133
*984 FILLER_2_139
*985 FILLER_2_141
*986 FILLER_2_15
*987 FILLER_2_153
*988 FILLER_2_165
*989 FILLER_2_177
*990 FILLER_2_189
*991 FILLER_2_195
*992 FILLER_2_197
*993 FILLER_2_209
*994 FILLER_2_221
*995 FILLER_2_233
*996 FILLER_2_245
*997 FILLER_2_251
*998 FILLER_2_253
*999 FILLER_2_265
*1000 FILLER_2_27
*1001 FILLER_2_277
*1002 FILLER_2_289
*1003 FILLER_2_29
*1004 FILLER_2_3
*1005 FILLER_2_301
*1006 FILLER_2_307
*1007 FILLER_2_309
*1008 FILLER_2_321
*1009 FILLER_2_333
*1010 FILLER_2_345
*1011 FILLER_2_357
*1012 FILLER_2_363
*1013 FILLER_2_365
*1014 FILLER_2_377
*1015 FILLER_2_389
*1016 FILLER_2_401
*1017 FILLER_2_41
*1018 FILLER_2_53
*1019 FILLER_2_65
*1020 FILLER_2_77
*1021 FILLER_2_83
*1022 FILLER_2_85
*1023 FILLER_2_97
*1024 FILLER_30_109
*1025 FILLER_30_121
*1026 FILLER_30_133
*1027 FILLER_30_139
*1028 FILLER_30_141
*1029 FILLER_30_153
*1030 FILLER_30_165
*1031 FILLER_30_177
*1032 FILLER_30_18
*1033 FILLER_30_189
*1034 FILLER_30_195
*1035 FILLER_30_197
*1036 FILLER_30_209
*1037 FILLER_30_221
*1038 FILLER_30_233
*1039 FILLER_30_245
*1040 FILLER_30_251
*1041 FILLER_30_253
*1042 FILLER_30_26
*1043 FILLER_30_265
*1044 FILLER_30_277
*1045 FILLER_30_289
*1046 FILLER_30_29
*1047 FILLER_30_301
*1048 FILLER_30_307
*1049 FILLER_30_309
*1050 FILLER_30_321
*1051 FILLER_30_333
*1052 FILLER_30_345
*1053 FILLER_30_357
*1054 FILLER_30_363
*1055 FILLER_30_365
*1056 FILLER_30_377
*1057 FILLER_30_389
*1058 FILLER_30_401
*1059 FILLER_30_41
*1060 FILLER_30_53
*1061 FILLER_30_6
*1062 FILLER_30_65
*1063 FILLER_30_77
*1064 FILLER_30_83
*1065 FILLER_30_85
*1066 FILLER_30_97
*1067 FILLER_31_109
*1068 FILLER_31_113
*1069 FILLER_31_125
*1070 FILLER_31_137
*1071 FILLER_31_149
*1072 FILLER_31_161
*1073 FILLER_31_167
*1074 FILLER_31_169
*1075 FILLER_31_181
*1076 FILLER_31_193
*1077 FILLER_31_20
*1078 FILLER_31_205
*1079 FILLER_31_217
*1080 FILLER_31_223
*1081 FILLER_31_225
*1082 FILLER_31_237
*1083 FILLER_31_249
*1084 FILLER_31_261
*1085 FILLER_31_273
*1086 FILLER_31_279
*1087 FILLER_31_281
*1088 FILLER_31_293
*1089 FILLER_31_305
*1090 FILLER_31_317
*1091 FILLER_31_32
*1092 FILLER_31_329
*1093 FILLER_31_335
*1094 FILLER_31_337
*1095 FILLER_31_349
*1096 FILLER_31_361
*1097 FILLER_31_373
*1098 FILLER_31_385
*1099 FILLER_31_391
*1100 FILLER_31_393
*1101 FILLER_31_44
*1102 FILLER_31_61
*1103 FILLER_31_7
*1104 FILLER_31_73
*1105 FILLER_31_85
*1106 FILLER_31_97
*1107 FILLER_32_109
*1108 FILLER_32_121
*1109 FILLER_32_133
*1110 FILLER_32_139
*1111 FILLER_32_141
*1112 FILLER_32_153
*1113 FILLER_32_165
*1114 FILLER_32_177
*1115 FILLER_32_189
*1116 FILLER_32_195
*1117 FILLER_32_197
*1118 FILLER_32_209
*1119 FILLER_32_221
*1120 FILLER_32_233
*1121 FILLER_32_245
*1122 FILLER_32_251
*1123 FILLER_32_253
*1124 FILLER_32_265
*1125 FILLER_32_27
*1126 FILLER_32_277
*1127 FILLER_32_289
*1128 FILLER_32_29
*1129 FILLER_32_301
*1130 FILLER_32_307
*1131 FILLER_32_309
*1132 FILLER_32_321
*1133 FILLER_32_333
*1134 FILLER_32_345
*1135 FILLER_32_357
*1136 FILLER_32_363
*1137 FILLER_32_365
*1138 FILLER_32_377
*1139 FILLER_32_389
*1140 FILLER_32_401
*1141 FILLER_32_41
*1142 FILLER_32_53
*1143 FILLER_32_6
*1144 FILLER_32_65
*1145 FILLER_32_77
*1146 FILLER_32_83
*1147 FILLER_32_85
*1148 FILLER_32_97
*1149 FILLER_33_105
*1150 FILLER_33_111
*1151 FILLER_33_113
*1152 FILLER_33_125
*1153 FILLER_33_137
*1154 FILLER_33_149
*1155 FILLER_33_15
*1156 FILLER_33_161
*1157 FILLER_33_167
*1158 FILLER_33_169
*1159 FILLER_33_181
*1160 FILLER_33_193
*1161 FILLER_33_205
*1162 FILLER_33_217
*1163 FILLER_33_223
*1164 FILLER_33_225
*1165 FILLER_33_23
*1166 FILLER_33_237
*1167 FILLER_33_249
*1168 FILLER_33_261
*1169 FILLER_33_273
*1170 FILLER_33_279
*1171 FILLER_33_281
*1172 FILLER_33_293
*1173 FILLER_33_3
*1174 FILLER_33_305
*1175 FILLER_33_317
*1176 FILLER_33_329
*1177 FILLER_33_335
*1178 FILLER_33_337
*1179 FILLER_33_349
*1180 FILLER_33_35
*1181 FILLER_33_361
*1182 FILLER_33_373
*1183 FILLER_33_385
*1184 FILLER_33_391
*1185 FILLER_33_393
*1186 FILLER_33_405
*1187 FILLER_33_47
*1188 FILLER_33_55
*1189 FILLER_33_57
*1190 FILLER_33_69
*1191 FILLER_33_81
*1192 FILLER_33_93
*1193 FILLER_34_109
*1194 FILLER_34_121
*1195 FILLER_34_133
*1196 FILLER_34_139
*1197 FILLER_34_141
*1198 FILLER_34_153
*1199 FILLER_34_165
*1200 FILLER_34_177
*1201 FILLER_34_18
*1202 FILLER_34_189
*1203 FILLER_34_195
*1204 FILLER_34_197
*1205 FILLER_34_209
*1206 FILLER_34_221
*1207 FILLER_34_233
*1208 FILLER_34_245
*1209 FILLER_34_251
*1210 FILLER_34_253
*1211 FILLER_34_26
*1212 FILLER_34_265
*1213 FILLER_34_277
*1214 FILLER_34_289
*1215 FILLER_34_29
*1216 FILLER_34_301
*1217 FILLER_34_307
*1218 FILLER_34_309
*1219 FILLER_34_321
*1220 FILLER_34_333
*1221 FILLER_34_345
*1222 FILLER_34_357
*1223 FILLER_34_363
*1224 FILLER_34_365
*1225 FILLER_34_377
*1226 FILLER_34_389
*1227 FILLER_34_41
*1228 FILLER_34_53
*1229 FILLER_34_6
*1230 FILLER_34_65
*1231 FILLER_34_77
*1232 FILLER_34_83
*1233 FILLER_34_85
*1234 FILLER_34_97
*1235 FILLER_35_105
*1236 FILLER_35_111
*1237 FILLER_35_113
*1238 FILLER_35_125
*1239 FILLER_35_137
*1240 FILLER_35_149
*1241 FILLER_35_161
*1242 FILLER_35_167
*1243 FILLER_35_169
*1244 FILLER_35_18
*1245 FILLER_35_181
*1246 FILLER_35_193
*1247 FILLER_35_205
*1248 FILLER_35_217
*1249 FILLER_35_223
*1250 FILLER_35_225
*1251 FILLER_35_237
*1252 FILLER_35_249
*1253 FILLER_35_261
*1254 FILLER_35_273
*1255 FILLER_35_279
*1256 FILLER_35_281
*1257 FILLER_35_293
*1258 FILLER_35_30
*1259 FILLER_35_305
*1260 FILLER_35_317
*1261 FILLER_35_329
*1262 FILLER_35_335
*1263 FILLER_35_337
*1264 FILLER_35_349
*1265 FILLER_35_361
*1266 FILLER_35_373
*1267 FILLER_35_385
*1268 FILLER_35_391
*1269 FILLER_35_393
*1270 FILLER_35_405
*1271 FILLER_35_42
*1272 FILLER_35_54
*1273 FILLER_35_57
*1274 FILLER_35_6
*1275 FILLER_35_69
*1276 FILLER_35_81
*1277 FILLER_35_93
*1278 FILLER_36_109
*1279 FILLER_36_121
*1280 FILLER_36_133
*1281 FILLER_36_139
*1282 FILLER_36_141
*1283 FILLER_36_15
*1284 FILLER_36_153
*1285 FILLER_36_165
*1286 FILLER_36_177
*1287 FILLER_36_189
*1288 FILLER_36_195
*1289 FILLER_36_197
*1290 FILLER_36_209
*1291 FILLER_36_221
*1292 FILLER_36_233
*1293 FILLER_36_245
*1294 FILLER_36_251
*1295 FILLER_36_253
*1296 FILLER_36_265
*1297 FILLER_36_27
*1298 FILLER_36_277
*1299 FILLER_36_289
*1300 FILLER_36_29
*1301 FILLER_36_3
*1302 FILLER_36_301
*1303 FILLER_36_307
*1304 FILLER_36_309
*1305 FILLER_36_321
*1306 FILLER_36_333
*1307 FILLER_36_345
*1308 FILLER_36_357
*1309 FILLER_36_363
*1310 FILLER_36_365
*1311 FILLER_36_377
*1312 FILLER_36_389
*1313 FILLER_36_401
*1314 FILLER_36_41
*1315 FILLER_36_53
*1316 FILLER_36_65
*1317 FILLER_36_77
*1318 FILLER_36_83
*1319 FILLER_36_85
*1320 FILLER_36_97
*1321 FILLER_37_105
*1322 FILLER_37_111
*1323 FILLER_37_113
*1324 FILLER_37_125
*1325 FILLER_37_137
*1326 FILLER_37_149
*1327 FILLER_37_15
*1328 FILLER_37_161
*1329 FILLER_37_167
*1330 FILLER_37_169
*1331 FILLER_37_181
*1332 FILLER_37_193
*1333 FILLER_37_205
*1334 FILLER_37_217
*1335 FILLER_37_223
*1336 FILLER_37_225
*1337 FILLER_37_237
*1338 FILLER_37_249
*1339 FILLER_37_261
*1340 FILLER_37_27
*1341 FILLER_37_273
*1342 FILLER_37_279
*1343 FILLER_37_281
*1344 FILLER_37_293
*1345 FILLER_37_3
*1346 FILLER_37_305
*1347 FILLER_37_317
*1348 FILLER_37_329
*1349 FILLER_37_335
*1350 FILLER_37_337
*1351 FILLER_37_349
*1352 FILLER_37_361
*1353 FILLER_37_373
*1354 FILLER_37_385
*1355 FILLER_37_39
*1356 FILLER_37_391
*1357 FILLER_37_393
*1358 FILLER_37_405
*1359 FILLER_37_51
*1360 FILLER_37_55
*1361 FILLER_37_57
*1362 FILLER_37_69
*1363 FILLER_37_81
*1364 FILLER_37_93
*1365 FILLER_38_109
*1366 FILLER_38_121
*1367 FILLER_38_133
*1368 FILLER_38_139
*1369 FILLER_38_141
*1370 FILLER_38_15
*1371 FILLER_38_153
*1372 FILLER_38_165
*1373 FILLER_38_177
*1374 FILLER_38_189
*1375 FILLER_38_195
*1376 FILLER_38_197
*1377 FILLER_38_209
*1378 FILLER_38_221
*1379 FILLER_38_233
*1380 FILLER_38_245
*1381 FILLER_38_251
*1382 FILLER_38_253
*1383 FILLER_38_265
*1384 FILLER_38_27
*1385 FILLER_38_277
*1386 FILLER_38_289
*1387 FILLER_38_29
*1388 FILLER_38_3
*1389 FILLER_38_301
*1390 FILLER_38_307
*1391 FILLER_38_309
*1392 FILLER_38_321
*1393 FILLER_38_333
*1394 FILLER_38_345
*1395 FILLER_38_357
*1396 FILLER_38_363
*1397 FILLER_38_365
*1398 FILLER_38_377
*1399 FILLER_38_389
*1400 FILLER_38_401
*1401 FILLER_38_41
*1402 FILLER_38_53
*1403 FILLER_38_65
*1404 FILLER_38_77
*1405 FILLER_38_83
*1406 FILLER_38_85
*1407 FILLER_38_97
*1408 FILLER_39_105
*1409 FILLER_39_111
*1410 FILLER_39_113
*1411 FILLER_39_125
*1412 FILLER_39_137
*1413 FILLER_39_149
*1414 FILLER_39_15
*1415 FILLER_39_161
*1416 FILLER_39_167
*1417 FILLER_39_169
*1418 FILLER_39_181
*1419 FILLER_39_193
*1420 FILLER_39_205
*1421 FILLER_39_217
*1422 FILLER_39_223
*1423 FILLER_39_225
*1424 FILLER_39_237
*1425 FILLER_39_249
*1426 FILLER_39_261
*1427 FILLER_39_27
*1428 FILLER_39_273
*1429 FILLER_39_279
*1430 FILLER_39_281
*1431 FILLER_39_293
*1432 FILLER_39_3
*1433 FILLER_39_305
*1434 FILLER_39_317
*1435 FILLER_39_329
*1436 FILLER_39_335
*1437 FILLER_39_337
*1438 FILLER_39_349
*1439 FILLER_39_361
*1440 FILLER_39_373
*1441 FILLER_39_385
*1442 FILLER_39_39
*1443 FILLER_39_391
*1444 FILLER_39_393
*1445 FILLER_39_405
*1446 FILLER_39_51
*1447 FILLER_39_55
*1448 FILLER_39_57
*1449 FILLER_39_69
*1450 FILLER_39_81
*1451 FILLER_39_93
*1452 FILLER_3_105
*1453 FILLER_3_111
*1454 FILLER_3_113
*1455 FILLER_3_125
*1456 FILLER_3_137
*1457 FILLER_3_149
*1458 FILLER_3_15
*1459 FILLER_3_161
*1460 FILLER_3_167
*1461 FILLER_3_169
*1462 FILLER_3_181
*1463 FILLER_3_193
*1464 FILLER_3_205
*1465 FILLER_3_217
*1466 FILLER_3_223
*1467 FILLER_3_225
*1468 FILLER_3_237
*1469 FILLER_3_249
*1470 FILLER_3_261
*1471 FILLER_3_27
*1472 FILLER_3_273
*1473 FILLER_3_279
*1474 FILLER_3_281
*1475 FILLER_3_293
*1476 FILLER_3_3
*1477 FILLER_3_305
*1478 FILLER_3_317
*1479 FILLER_3_329
*1480 FILLER_3_335
*1481 FILLER_3_337
*1482 FILLER_3_349
*1483 FILLER_3_361
*1484 FILLER_3_373
*1485 FILLER_3_385
*1486 FILLER_3_39
*1487 FILLER_3_391
*1488 FILLER_3_393
*1489 FILLER_3_405
*1490 FILLER_3_51
*1491 FILLER_3_55
*1492 FILLER_3_57
*1493 FILLER_3_69
*1494 FILLER_3_81
*1495 FILLER_3_93
*1496 FILLER_40_109
*1497 FILLER_40_121
*1498 FILLER_40_133
*1499 FILLER_40_139
*1500 FILLER_40_141
*1501 FILLER_40_15
*1502 FILLER_40_153
*1503 FILLER_40_165
*1504 FILLER_40_177
*1505 FILLER_40_189
*1506 FILLER_40_195
*1507 FILLER_40_197
*1508 FILLER_40_209
*1509 FILLER_40_221
*1510 FILLER_40_233
*1511 FILLER_40_245
*1512 FILLER_40_251
*1513 FILLER_40_253
*1514 FILLER_40_265
*1515 FILLER_40_27
*1516 FILLER_40_277
*1517 FILLER_40_289
*1518 FILLER_40_29
*1519 FILLER_40_3
*1520 FILLER_40_301
*1521 FILLER_40_307
*1522 FILLER_40_309
*1523 FILLER_40_321
*1524 FILLER_40_333
*1525 FILLER_40_345
*1526 FILLER_40_357
*1527 FILLER_40_363
*1528 FILLER_40_365
*1529 FILLER_40_377
*1530 FILLER_40_389
*1531 FILLER_40_401
*1532 FILLER_40_41
*1533 FILLER_40_53
*1534 FILLER_40_65
*1535 FILLER_40_77
*1536 FILLER_40_83
*1537 FILLER_40_85
*1538 FILLER_40_97
*1539 FILLER_41_105
*1540 FILLER_41_111
*1541 FILLER_41_113
*1542 FILLER_41_125
*1543 FILLER_41_137
*1544 FILLER_41_149
*1545 FILLER_41_15
*1546 FILLER_41_161
*1547 FILLER_41_167
*1548 FILLER_41_169
*1549 FILLER_41_181
*1550 FILLER_41_193
*1551 FILLER_41_205
*1552 FILLER_41_217
*1553 FILLER_41_223
*1554 FILLER_41_225
*1555 FILLER_41_237
*1556 FILLER_41_249
*1557 FILLER_41_261
*1558 FILLER_41_27
*1559 FILLER_41_273
*1560 FILLER_41_279
*1561 FILLER_41_281
*1562 FILLER_41_293
*1563 FILLER_41_3
*1564 FILLER_41_305
*1565 FILLER_41_317
*1566 FILLER_41_329
*1567 FILLER_41_335
*1568 FILLER_41_337
*1569 FILLER_41_349
*1570 FILLER_41_361
*1571 FILLER_41_373
*1572 FILLER_41_385
*1573 FILLER_41_39
*1574 FILLER_41_391
*1575 FILLER_41_393
*1576 FILLER_41_405
*1577 FILLER_41_51