*SPEF "ieee 1481-1999"
*DESIGN "SARSA_RUIDO_e9"
*DATE "11:31:22 Friday September 12, 2025"
*VENDOR "The OpenROAD Project"
*PROGRAM "OpenROAD"
*VERSION "edf00dff99f6c40d67a30c0e22a8191c5d2ed9d6"
*DESIGN_FLOW "NAME_SCOPE LOCAL" "PIN_CAP NONE"
*DIVIDER /
*DELIMITER :
*BUS_DELIMITER []
*T_UNIT 1 NS
*C_UNIT 1 PF
*R_UNIT 1 OHM
*L_UNIT 1 HENRY

*NAME_MAP
*1 A[0]
*2 A[1]
*3 B[0]
*4 B[1]
*5 P[0]
*6 P[1]
*7 P[2]
*8 P[3]
*11 _0_
*12 _1_
*13 net1
*14 net2
*15 net3
*16 net4
*17 net5
*18 net6
*19 net7
*20 net8
*21 FILLER_0_15
*22 FILLER_0_27
*23 FILLER_0_29
*24 FILLER_0_3
*25 FILLER_0_41
*26 FILLER_0_53
*27 FILLER_0_57
*28 FILLER_0_69
*29 FILLER_1_15
*30 FILLER_1_27
*31 FILLER_1_3
*32 FILLER_1_39
*33 FILLER_1_51
*34 FILLER_1_55
*35 FILLER_1_57
*36 FILLER_1_69
*37 FILLER_2_15
*38 FILLER_2_27
*39 FILLER_2_29
*40 FILLER_2_3
*41 FILLER_2_41
*42 FILLER_2_53
*43 FILLER_2_65
*44 FILLER_2_77
*45 FILLER_3_15
*46 FILLER_3_27
*47 FILLER_3_3
*48 FILLER_3_39
*49 FILLER_3_51
*50 FILLER_3_55
*51 FILLER_3_57
*52 FILLER_3_69
*53 FILLER_4_15
*54 FILLER_4_27
*55 FILLER_4_29
*56 FILLER_4_3
*57 FILLER_4_41
*58 FILLER_4_53
*59 FILLER_4_65
*60 FILLER_5_15
*61 FILLER_5_27
*62 FILLER_5_3
*63 FILLER_5_39
*64 FILLER_5_51
*65 FILLER_5_55
*66 FILLER_5_57
*67 FILLER_5_69
*68 FILLER_6_18
*69 FILLER_6_26
*70 FILLER_6_29
*71 FILLER_6_41
*72 FILLER_6_53
*73 FILLER_6_6
*74 FILLER_6_72
*75 FILLER_6_76
*76 FILLER_7_15
*77 FILLER_7_27
*78 FILLER_7_3
*79 FILLER_7_39
*80 FILLER_7_55
*81 FILLER_7_62
*82 FILLER_7_71
*83 FILLER_7_77
*84 FILLER_8_15
*85 FILLER_8_27
*86 FILLER_8_29
*87 FILLER_8_3
*88 FILLER_8_35
*89 FILLER_8_39
*90 FILLER_8_51
*91 FILLER_8_63
*92 FILLER_8_75
*93 FILLER_9_15
*94 FILLER_9_27
*95 FILLER_9_29
*96 FILLER_9_3
*97 FILLER_9_35
*98 FILLER_9_41
*99 FILLER_9_53
*100 FILLER_9_57
*101 FILLER_9_69
*102 FILLER_9_77
*103 PHY_EDGE_ROW_0_Left_10
*104 PHY_EDGE_ROW_0_Right_0
*105 PHY_EDGE_ROW_1_Left_11
*106 PHY_EDGE_ROW_1_Right_1
*107 PHY_EDGE_ROW_2_Left_12
*108 PHY_EDGE_ROW_2_Right_2
*109 PHY_EDGE_ROW_3_Left_13
*110 PHY_EDGE_ROW_3_Right_3
*111 PHY_EDGE_ROW_4_Left_14
*112 PHY_EDGE_ROW_4_Right_4
*113 PHY_EDGE_ROW_5_Left_15
*114 PHY_EDGE_ROW_5_Right_5
*115 PHY_EDGE_ROW_6_Left_16
*116 PHY_EDGE_ROW_6_Right_6
*117 PHY_EDGE_ROW_7_Left_17
*118 PHY_EDGE_ROW_7_Right_7
*119 PHY_EDGE_ROW_8_Left_18
*120 PHY_EDGE_ROW_8_Right_8
*121 PHY_EDGE_ROW_9_Left_19
*122 PHY_EDGE_ROW_9_Right_9
*123 TAP_TAPCELL_ROW_0_20
*124 TAP_TAPCELL_ROW_0_21
*125 TAP_TAPCELL_ROW_1_22
*126 TAP_TAPCELL_ROW_2_23
*127 TAP_TAPCELL_ROW_3_24
*128 TAP_TAPCELL_ROW_4_25
*129 TAP_TAPCELL_ROW_5_26
*130 TAP_TAPCELL_ROW_6_27
*131 TAP_TAPCELL_ROW_7_28
*132 TAP_TAPCELL_ROW_8_29
*133 TAP_TAPCELL_ROW_9_30
*134 TAP_TAPCELL_ROW_9_31
*135 _2_
*136 _3_
*137 _4_
*138 _5_
*139 _6_
*140 _7_
*141 input1
*142 input2
*143 input3
*144 input4
*145 output5
*146 output6
*147 output7
*148 output8

*PORTS
A[0] I
A[1] I
B[0] I
B[1] I
P[0] O
P[1] O
P[2] O
P[3] O

*D_NET *1 0.00088171
*CONN
*P A[0] I
*I *141:A I *D sky130_fd_sc_hd__buf_1
*CAP
1 A[0] 0.000436701
2 *141:A 0.000436701
3 *141:A P[1] 0
4 *141:A *146:A 8.30853e-06
*RES
1 A[0] *141:A 11.37 
*END

*D_NET *2 0.000633505
*CONN
*P A[1] I
*I *142:A I *D sky130_fd_sc_hd__buf_1
*CAP
1 A[1] 0.00024374
2 *142:A 0.00024374
3 *142:A *144:A 8.53361e-05
4 *142:A *14:8 6.06899e-05
*RES
1 A[1] *142:A 6.63177 
*END

*D_NET *3 0.000475631
*CONN
*P B[0] I
*I *143:A I *D sky130_fd_sc_hd__buf_1
*CAP
1 B[0] 0.000237816
2 *143:A 0.000237816
*RES
1 B[0] *143:A 5.35677 
*END

*D_NET *4 0.000457158
*CONN
*P B[1] I
*I *144:A I *D sky130_fd_sc_hd__buf_1
*CAP
1 B[1] 0.000132049
2 *144:A 0.000132049
3 *144:A P[3] 7.70436e-05
4 *144:A *140:B 1.17114e-05
5 *144:A *14:8 1.89685e-05
6 *142:A *144:A 8.53361e-05
*RES
1 B[1] *144:A 5.10177 
*END

*D_NET *5 0.000584515
*CONN
*P P[0] O
*I *145:X O *D sky130_fd_sc_hd__buf_2
*CAP
1 P[0] 0.000245984
2 *145:X 0.000245984
3 P[0] P[2] 9.25475e-05
*RES
1 *145:X P[0] 5.92503 
*END

*D_NET *6 0.000858878
*CONN
*P P[1] O
*I *146:X O *D sky130_fd_sc_hd__buf_2
*CAP
1 P[1] 0.000429439
2 *146:X 0.000429439
3 *141:A P[1] 0
*RES
1 *146:X P[1] 11.205 
*END

*D_NET *7 0.000534897
*CONN
*P P[2] O
*I *147:X O *D sky130_fd_sc_hd__buf_2
*CAP
1 P[2] 0.000174901
2 *147:X 0.000174901
3 P[2] P[3] 9.25475e-05
4 P[0] P[2] 9.25475e-05
*RES
1 *147:X P[2] 5.41503 
*END

*D_NET *8 0.000471775
*CONN
*P P[3] O
*I *148:X O *D sky130_fd_sc_hd__buf_2
*CAP
1 P[3] 0.000146178
2 *148:X 0.000146178
3 P[3] *147:A 9.82856e-06
4 P[2] P[3] 9.25475e-05
5 *144:A P[3] 7.70436e-05
*RES
1 *148:X P[3] 4.90503 
*END

*D_NET *11 0.000450414
*CONN
*I *139:A I *D sky130_fd_sc_hd__nor2_1
*I *137:X O *D sky130_fd_sc_hd__o211a_1
*CAP
1 *139:A 0.000180338
2 *137:X 0.000180338
3 *139:A *137:A1 6.55133e-05
4 *139:A *13:8 2.42236e-05
*RES
1 *137:X *139:A 9.72 
*END

*D_NET *12 0.0014623
*CONN
*I *139:B I *D sky130_fd_sc_hd__nor2_1
*I *138:Y O *D sky130_fd_sc_hd__a22oi_1
*CAP
1 *139:B 0.000475511
2 *138:Y 0.000475511
3 *139:B *138:B1 2.97561e-05
4 *139:B *146:A 2.50059e-05
5 *139:B *13:29 0.000456514
*RES
1 *138:Y *139:B 16.02 
*END

*D_NET *13 0.00252742
*CONN
*I *135:B I *D sky130_fd_sc_hd__and2_1
*I *138:A1 I *D sky130_fd_sc_hd__a22oi_1
*I *137:A1 I *D sky130_fd_sc_hd__o211a_1
*I *141:X O *D sky130_fd_sc_hd__buf_1
*CAP
1 *135:B 8.12559e-05
2 *138:A1 0
3 *137:A1 0.000173456
4 *141:X 0.000112094
5 *13:29 0.000439032
6 *13:8 0.000643327
7 *135:B *135:A 7.35813e-05
8 *135:B *138:B2 0
9 *135:B *14:29 2.66586e-05
10 *135:B *15:16 6.97118e-05
11 *135:B *16:16 0.000323392
12 *13:8 *146:A 3.86607e-05
13 *139:A *137:A1 6.55133e-05
14 *139:A *13:8 2.42236e-05
15 *139:B *13:29 0.000456514
*RES
1 *141:X *13:8 5.745 
2 *13:8 *137:A1 6.465 
3 *13:8 *13:29 11.025 
4 *13:29 *138:A1 1.6 
5 *13:29 *135:B 4.825 
*END

*D_NET *14 0.00386557
*CONN
*I *136:B I *D sky130_fd_sc_hd__and3_1
*I *138:B1 I *D sky130_fd_sc_hd__a22oi_1
*I *137:B1 I *D sky130_fd_sc_hd__o211a_1
*I *140:B I *D sky130_fd_sc_hd__and3b_1
*I *142:X O *D sky130_fd_sc_hd__buf_1
*CAP
1 *136:B 0
2 *138:B1 4.63809e-05
3 *137:B1 0.000214031
4 *140:B 0.000372301
5 *142:X 0.00020893
6 *14:29 0.000678216
7 *14:27 0.000569362
8 *14:8 0.000732788
9 *137:B1 *137:A2 1.86006e-05
10 *137:B1 *15:16 0.000112654
11 *138:B1 *15:12 0
12 *140:B *140:C 0
13 *140:B *147:A 3.06697e-05
14 *140:B *148:A 7.06865e-05
15 *14:8 *140:C 0
16 *14:27 *148:A 0.000278111
17 *14:27 *16:8 0.000141467
18 *14:27 *16:10 1.83756e-05
19 *14:29 *135:A 6.90876e-05
20 *14:29 *15:16 5.05521e-05
21 *14:29 *16:10 2.26018e-05
22 *14:29 *16:16 8.29685e-05
23 *135:B *14:29 2.66586e-05
24 *139:B *138:B1 2.97561e-05
25 *142:A *14:8 6.06899e-05
26 *144:A *140:B 1.17114e-05
27 *144:A *14:8 1.89685e-05
*RES
1 *142:X *14:8 7.275 
2 *14:8 *140:B 8.19 
3 *14:8 *14:27 6.275 
4 *14:27 *14:29 5.625 
5 *14:29 *137:B1 4.645 
6 *14:29 *138:B1 6.47 
7 *14:27 *136:B 1.6 
*END

*D_NET *15 0.0036971
*CONN
*I *137:C1 I *D sky130_fd_sc_hd__o211a_1
*I *135:A I *D sky130_fd_sc_hd__and2_1
*I *138:B2 I *D sky130_fd_sc_hd__a22oi_1
*I *143:X O *D sky130_fd_sc_hd__buf_1
*CAP
1 *137:C1 0
2 *135:A 2.25872e-05
3 *138:B2 1.34399e-05
4 *143:X 0.00152221
5 *15:16 0.000108956
6 *15:12 0.00159514
7 *138:B2 *138:A2 0
8 *15:16 *137:A2 2.8763e-05
9 *15:16 *138:A2 1.9155e-05
10 *15:16 *16:16 1.12578e-05
11 *135:B *135:A 7.35813e-05
12 *135:B *138:B2 0
13 *135:B *15:16 6.97118e-05
14 *137:B1 *15:16 0.000112654
15 *138:B1 *15:12 0
16 *14:29 *135:A 6.90876e-05
17 *14:29 *15:16 5.05521e-05
*RES
1 *143:X *15:12 22.175 
2 *15:12 *15:16 2.535 
3 *15:16 *138:B2 1.96 
4 *15:16 *135:A 2.74 
5 *15:12 *137:C1 1.6 
*END

*D_NET *16 0.00290552
*CONN
*I *140:C I *D sky130_fd_sc_hd__and3b_1
*I *136:A I *D sky130_fd_sc_hd__and3_1
*I *138:A2 I *D sky130_fd_sc_hd__a22oi_1
*I *137:A2 I *D sky130_fd_sc_hd__o211a_1
*I *144:X O *D sky130_fd_sc_hd__buf_1
*CAP
1 *140:C 0.000202996
2 *136:A 0
3 *138:A2 2.82374e-05
4 *137:A2 0.000177258
5 *144:X 0.000198001
6 *16:16 0.000537529
7 *16:10 0.000365208
8 *16:8 0.000434171
9 *140:C *145:A 0
10 *140:C *148:A 0
11 *140:C *17:10 0
12 *16:10 *136:C 9.49276e-05
13 *16:16 *136:C 3.74161e-05
14 *16:16 *17:6 0.000163199
15 *135:B *16:16 0.000323392
16 *137:B1 *137:A2 1.86006e-05
17 *138:B2 *138:A2 0
18 *140:B *140:C 0
19 *14:8 *140:C 0
20 *14:27 *16:8 0.000141467
21 *14:27 *16:10 1.83756e-05
22 *14:29 *16:10 2.26018e-05
23 *14:29 *16:16 8.29685e-05
24 *15:16 *137:A2 2.8763e-05
25 *15:16 *138:A2 1.9155e-05
26 *15:16 *16:16 1.12578e-05
*RES
1 *144:X *16:8 5.17 
2 *16:8 *16:10 1.14 
3 *16:10 *16:16 6.09 
4 *16:16 *137:A2 4.045 
5 *16:16 *138:A2 2.33875 
6 *16:10 *136:A 1.6 
7 *16:8 *140:C 8.615 
*END

*D_NET *17 0.0021083
*CONN
*I *136:C I *D sky130_fd_sc_hd__and3_1
*I *140:A_N I *D sky130_fd_sc_hd__and3b_1
*I *145:A I *D sky130_fd_sc_hd__buf_2
*I *135:X O *D sky130_fd_sc_hd__and2_1
*CAP
1 *136:C 8.42688e-05
2 *140:A_N 0
3 *145:A 0.000535622
4 *135:X 0.000104695
5 *17:10 0.000717415
6 *17:6 0.000370757
7 *140:C *145:A 0
8 *140:C *17:10 0
9 *16:10 *136:C 9.49276e-05
10 *16:16 *136:C 3.74161e-05
11 *16:16 *17:6 0.000163199
*RES
1 *135:X *17:6 3.085 
2 *17:6 *17:10 4.91 
3 *17:10 *145:A 12.03 
4 *17:10 *140:A_N 3.6 
5 *17:6 *136:C 2.8 
*END

*D_NET *18 0.000601891
*CONN
*I *146:A I *D sky130_fd_sc_hd__buf_2
*I *139:Y O *D sky130_fd_sc_hd__nor2_1
*CAP
1 *146:A 0.000264958
2 *139:Y 0.000264958
3 *139:B *146:A 2.50059e-05
4 *141:A *146:A 8.30853e-06
5 *13:8 *146:A 3.86607e-05
*RES
1 *139:Y *146:A 11.325 
*END

*D_NET *19 0.000584153
*CONN
*I *147:A I *D sky130_fd_sc_hd__buf_2
*I *140:X O *D sky130_fd_sc_hd__and3b_1
*CAP
1 *147:A 0.000271827
2 *140:X 0.000271827
3 P[3] *147:A 9.82856e-06
4 *140:B *147:A 3.06697e-05
*RES
1 *140:X *147:A 10.755 
*END

*D_NET *20 0.000873832
*CONN
*I *148:A I *D sky130_fd_sc_hd__buf_2
*I *136:X O *D sky130_fd_sc_hd__and3_1
*CAP
1 *148:A 0.000262517
2 *136:X 0.000262517
3 *140:B *148:A 7.06865e-05
4 *140:C *148:A 0
5 *14:27 *148:A 0.000278111
*RES
1 *136:X *148:A 11.355 
*END
