*SPEF "ieee 1481-1999"
*DESIGN "SARSANSTEPS_VENTAJA_e7"
*DATE "18:04:52 Tuesday September 16, 2025"
*VENDOR "The OpenROAD Project"
*PROGRAM "OpenROAD"
*VERSION "edf00dff99f6c40d67a30c0e22a8191c5d2ed9d6"
*DESIGN_FLOW "NAME_SCOPE LOCAL" "PIN_CAP NONE"
*DIVIDER /
*DELIMITER :
*BUS_DELIMITER []
*T_UNIT 1 NS
*C_UNIT 1 PF
*R_UNIT 1 OHM
*L_UNIT 1 HENRY

*NAME_MAP
*1 A[0]
*2 A[1]
*3 B[0]
*4 B[1]
*5 P[0]
*6 P[1]
*7 P[2]
*8 P[3]
*11 _0_
*12 _1_
*13 net1
*14 net2
*15 net3
*16 net4
*17 net5
*18 net6
*19 net7
*20 net8
*21 FILLER_0_15
*22 FILLER_0_27
*23 FILLER_0_29
*24 FILLER_0_3
*25 FILLER_0_41
*26 FILLER_0_49
*27 FILLER_0_57
*28 FILLER_0_69
*29 FILLER_1_15
*30 FILLER_1_27
*31 FILLER_1_3
*32 FILLER_1_39
*33 FILLER_1_51
*34 FILLER_1_55
*35 FILLER_1_57
*36 FILLER_1_69
*37 FILLER_2_15
*38 FILLER_2_27
*39 FILLER_2_29
*40 FILLER_2_3
*41 FILLER_2_41
*42 FILLER_2_53
*43 FILLER_2_65
*44 FILLER_2_77
*45 FILLER_3_15
*46 FILLER_3_27
*47 FILLER_3_3
*48 FILLER_3_39
*49 FILLER_3_51
*50 FILLER_3_55
*51 FILLER_3_57
*52 FILLER_3_69
*53 FILLER_4_15
*54 FILLER_4_27
*55 FILLER_4_29
*56 FILLER_4_3
*57 FILLER_4_41
*58 FILLER_4_53
*59 FILLER_4_65
*60 FILLER_4_77
*61 FILLER_5_15
*62 FILLER_5_27
*63 FILLER_5_3
*64 FILLER_5_39
*65 FILLER_5_47
*66 FILLER_5_55
*67 FILLER_5_57
*68 FILLER_5_69
*69 FILLER_6_15
*70 FILLER_6_27
*71 FILLER_6_29
*72 FILLER_6_3
*73 FILLER_6_41
*74 FILLER_6_53
*75 FILLER_6_65
*76 FILLER_6_77
*77 FILLER_7_15
*78 FILLER_7_27
*79 FILLER_7_3
*80 FILLER_7_33
*81 FILLER_7_37
*82 FILLER_7_49
*83 FILLER_7_55
*84 FILLER_7_57
*85 FILLER_7_69
*86 FILLER_8_15
*87 FILLER_8_27
*88 FILLER_8_29
*89 FILLER_8_3
*90 FILLER_8_42
*91 FILLER_8_51
*92 FILLER_8_68
*93 FILLER_8_80
*94 FILLER_9_15
*95 FILLER_9_23
*96 FILLER_9_27
*97 FILLER_9_29
*98 FILLER_9_3
*99 FILLER_9_34
*100 FILLER_9_41
*101 FILLER_9_49
*102 FILLER_9_57
*103 FILLER_9_63
*104 FILLER_9_69
*105 PHY_EDGE_ROW_0_Left_10
*106 PHY_EDGE_ROW_0_Right_0
*107 PHY_EDGE_ROW_1_Left_11
*108 PHY_EDGE_ROW_1_Right_1
*109 PHY_EDGE_ROW_2_Left_12
*110 PHY_EDGE_ROW_2_Right_2
*111 PHY_EDGE_ROW_3_Left_13
*112 PHY_EDGE_ROW_3_Right_3
*113 PHY_EDGE_ROW_4_Left_14
*114 PHY_EDGE_ROW_4_Right_4
*115 PHY_EDGE_ROW_5_Left_15
*116 PHY_EDGE_ROW_5_Right_5
*117 PHY_EDGE_ROW_6_Left_16
*118 PHY_EDGE_ROW_6_Right_6
*119 PHY_EDGE_ROW_7_Left_17
*120 PHY_EDGE_ROW_7_Right_7
*121 PHY_EDGE_ROW_8_Left_18
*122 PHY_EDGE_ROW_8_Right_8
*123 PHY_EDGE_ROW_9_Left_19
*124 PHY_EDGE_ROW_9_Right_9
*125 TAP_TAPCELL_ROW_0_20
*126 TAP_TAPCELL_ROW_0_21
*127 TAP_TAPCELL_ROW_1_22
*128 TAP_TAPCELL_ROW_2_23
*129 TAP_TAPCELL_ROW_3_24
*130 TAP_TAPCELL_ROW_4_25
*131 TAP_TAPCELL_ROW_5_26
*132 TAP_TAPCELL_ROW_6_27
*133 TAP_TAPCELL_ROW_7_28
*134 TAP_TAPCELL_ROW_8_29
*135 TAP_TAPCELL_ROW_9_30
*136 TAP_TAPCELL_ROW_9_31
*137 _2_
*138 _3_
*139 _4_
*140 _5_
*141 _6_
*142 _7_
*143 input1
*144 input2
*145 input3
*146 input4
*147 output5
*148 output6
*149 output7
*150 output8

*PORTS
A[0] I
A[1] I
B[0] I
B[1] I
P[0] O
P[1] O
P[2] O
P[3] O

*D_NET *1 0.000980411
*CONN
*P A[0] I
*I *143:A I *D sky130_fd_sc_hd__buf_1
*CAP
1 A[0] 0.000490205
2 *143:A 0.000490205
3 *143:A *146:A 0
*RES
1 A[0] *143:A 48.73 
*END

*D_NET *2 0.00106389
*CONN
*P A[1] I
*I *144:A I *D sky130_fd_sc_hd__clkbuf_1
*CAP
1 A[1] 0.000531944
2 *144:A 0.000531944
3 *144:A P[3] 0
*RES
1 A[1] *144:A 49.6829 
*END

*D_NET *3 0.000980411
*CONN
*P B[0] I
*I *145:A I *D sky130_fd_sc_hd__buf_1
*CAP
1 B[0] 0.000490205
2 *145:A 0.000490205
3 *145:A P[2] 0
4 *145:A *146:A 0
5 *145:A *19:10 0
*RES
1 B[0] *145:A 48.73 
*END

*D_NET *4 0.000980411
*CONN
*P B[1] I
*I *146:A I *D sky130_fd_sc_hd__clkbuf_1
*CAP
1 B[1] 0.000490205
2 *146:A 0.000490205
3 *143:A *146:A 0
4 *145:A *146:A 0
*RES
1 B[1] *146:A 48.73 
*END

*D_NET *5 0.00100658
*CONN
*P P[0] O
*I *147:X O *D sky130_fd_sc_hd__buf_2
*CAP
1 P[0] 0.000503292
2 *147:X 0.000503292
*RES
1 *147:X P[0] 47.57 
*END

*D_NET *6 0.000960449
*CONN
*P P[1] O
*I *148:X O *D sky130_fd_sc_hd__buf_2
*CAP
1 P[1] 0.000480224
2 *148:X 0.000480224
3 P[1] P[2] 0
4 P[1] P[3] 0
*RES
1 *148:X P[1] 48.5021 
*END

*D_NET *7 0.00100219
*CONN
*P P[2] O
*I *149:X O *D sky130_fd_sc_hd__buf_2
*CAP
1 P[2] 0.000501094
2 *149:X 0.000501094
3 P[1] P[2] 0
4 *145:A P[2] 0
*RES
1 *149:X P[2] 48.9786 
*END

*D_NET *8 0.00100219
*CONN
*P P[3] O
*I *150:X O *D sky130_fd_sc_hd__buf_2
*CAP
1 P[3] 0.000501094
2 *150:X 0.000501094
3 P[1] P[3] 0
4 *144:A P[3] 0
*RES
1 *150:X P[3] 48.9786 
*END

*D_NET *11 0.000493364
*CONN
*I *142:C I *D sky130_fd_sc_hd__and3_1
*I *138:Y O *D sky130_fd_sc_hd__nand2_1
*CAP
1 *142:C 0.00010666
2 *138:Y 6.78963e-05
3 *11:8 0.000174556
4 *142:C *139:A 5.10353e-05
5 *142:C *142:A 5.73288e-05
6 *142:C *13:29 1.34995e-05
7 *11:8 *138:B 2.23884e-05
*RES
1 *138:Y *11:8 39.2014 
2 *11:8 *142:C 39.6571 
*END

*D_NET *12 0.000170612
*CONN
*I *141:B I *D sky130_fd_sc_hd__and2b_1
*I *140:X O *D sky130_fd_sc_hd__mux2_1
*CAP
1 *141:B 2.84323e-05
2 *140:X 2.84323e-05
3 *141:B *140:A0 5.70419e-05
4 *141:B *18:10 5.67058e-05
*RES
1 *140:X *141:B 47.0979 
*END

*D_NET *13 0.00473051
*CONN
*I *140:A0 I *D sky130_fd_sc_hd__mux2_1
*I *139:D I *D sky130_fd_sc_hd__and4_1
*I *137:B I *D sky130_fd_sc_hd__xnor2_1
*I *138:B I *D sky130_fd_sc_hd__nand2_1
*I *143:X O *D sky130_fd_sc_hd__buf_1
*CAP
1 *140:A0 0.000137693
2 *139:D 0
3 *137:B 0
4 *138:B 0.000198839
5 *143:X 0.00036396
6 *13:46 0.000272063
7 *13:37 0.000509854
8 *13:29 0.000829248
9 *13:12 0.000747823
10 *140:A0 *140:S 0.000665349
11 *140:A0 *18:10 1.22822e-05
12 *140:A0 *20:6 0.000143655
13 *140:A0 *20:21 0.000130423
14 *13:29 *139:A 5.12254e-05
15 *13:29 *142:A 2.93335e-05
16 *13:29 *142:B 5.50049e-05
17 *13:37 *16:10 3.0647e-05
18 *13:46 *139:A 9.72406e-05
19 *13:46 *140:S 4.66047e-05
20 *13:46 *142:B 0.000316338
21 *141:B *140:A0 5.70419e-05
22 *142:C *13:29 1.34995e-05
23 *11:8 *138:B 2.23884e-05
*RES
1 *143:X *13:12 43.3546 
2 *13:12 *138:B 41.7596 
3 *13:12 *13:29 18.48 
4 *13:29 *13:37 39.57 
5 *13:37 *137:B 23 
6 *13:29 *13:46 4.45357 
7 *13:46 *139:D 23 
8 *13:46 *140:A0 30.2914 
*END

*D_NET *14 0.00304049
*CONN
*I *140:A1 I *D sky130_fd_sc_hd__mux2_1
*I *142:B I *D sky130_fd_sc_hd__and3_1
*I *139:C I *D sky130_fd_sc_hd__and4_1
*I *144:X O *D sky130_fd_sc_hd__clkbuf_1
*CAP
1 *140:A1 0
2 *142:B 0.000156157
3 *139:C 5.79785e-05
4 *144:X 8.1184e-05
5 *14:38 0.000124681
6 *14:12 0.000924008
7 *14:6 0.000915738
8 *139:C *15:10 6.16439e-05
9 *142:B *19:10 0.000191255
10 *14:12 *15:10 0.000101708
11 *14:12 *18:10 0
12 *14:12 *20:21 5.47927e-05
13 *14:38 *20:21 0
14 *13:29 *142:B 5.50049e-05
15 *13:46 *142:B 0.000316338
*RES
1 *144:X *14:6 24.0979 
2 *14:6 *14:12 24.7979 
3 *14:12 *139:C 38.8493 
4 *14:12 *142:B 42.4536 
5 *14:6 *14:38 31.9057 
6 *14:38 *140:A1 23 
*END

*D_NET *15 0.00422727
*CONN
*I *140:S I *D sky130_fd_sc_hd__mux2_1
*I *139:B I *D sky130_fd_sc_hd__and4_1
*I *138:A I *D sky130_fd_sc_hd__nand2_1
*I *137:A I *D sky130_fd_sc_hd__xnor2_1
*I *145:X O *D sky130_fd_sc_hd__buf_1
*CAP
1 *140:S 0.000432927
2 *139:B 0
3 *138:A 0.000298154
4 *137:A 0.000417665
5 *145:X 0.000353205
6 *15:34 0.000432927
7 *15:12 0.00084462
8 *15:10 0.000482006
9 *137:A *17:8 7.53384e-06
10 *15:10 *16:10 0
11 *15:10 *19:10 8.29264e-05
12 *139:C *15:10 6.16439e-05
13 *140:A0 *140:S 0.000665349
14 *13:46 *140:S 4.66047e-05
15 *14:12 *15:10 0.000101708
*RES
1 *145:X *15:10 43.6136 
2 *15:10 *15:12 2.25786 
3 *15:12 *137:A 45.83 
4 *15:12 *138:A 42.9093 
5 *15:10 *15:34 15 
6 *15:34 *139:B 23 
7 *15:34 *140:S 33.0464 
*END

*D_NET *16 0.00135111
*CONN
*I *139:A I *D sky130_fd_sc_hd__and4_1
*I *142:A I *D sky130_fd_sc_hd__and3_1
*I *146:X O *D sky130_fd_sc_hd__clkbuf_1
*CAP
1 *139:A 0.000151114
2 *142:A 1.46615e-05
3 *146:X 0.000351371
4 *16:12 0.000165776
5 *16:10 0.000351371
6 *16:10 *19:10 0
7 *142:C *139:A 5.10353e-05
8 *142:C *142:A 5.73288e-05
9 *13:29 *139:A 5.12254e-05
10 *13:29 *142:A 2.93335e-05
11 *13:37 *16:10 3.0647e-05
12 *13:46 *139:A 9.72406e-05
13 *15:10 *16:10 0
*RES
1 *146:X *16:10 43.1371 
2 *16:10 *16:12 15 
3 *16:12 *142:A 23.6214 
4 *16:12 *139:A 26.0036 
*END

*D_NET *17 0.00180184
*CONN
*I *147:A I *D sky130_fd_sc_hd__buf_2
*I *137:Y O *D sky130_fd_sc_hd__xnor2_1
*CAP
1 *147:A 0
2 *137:Y 0.00018113
3 *17:12 0.000716021
4 *17:8 0.000897151
5 *137:A *17:8 7.53384e-06
*RES
1 *137:Y *17:8 41.0036 
2 *17:8 *17:12 28.8786 
3 *17:12 *147:A 23 
*END

*D_NET *18 0.000666346
*CONN
*I *148:A I *D sky130_fd_sc_hd__buf_2
*I *141:X O *D sky130_fd_sc_hd__and2b_1
*CAP
1 *148:A 0
2 *141:X 0.000200735
3 *18:10 0.000200735
4 *18:10 *20:21 0.000195888
5 *140:A0 *18:10 1.22822e-05
6 *141:B *18:10 5.67058e-05
7 *14:12 *18:10 0
*RES
1 *141:X *18:10 41.8321 
2 *18:10 *148:A 38 
*END

*D_NET *19 0.000751198
*CONN
*I *149:A I *D sky130_fd_sc_hd__buf_2
*I *142:X O *D sky130_fd_sc_hd__and3_1
*CAP
1 *149:A 0
2 *142:X 0.000238509
3 *19:10 0.000238509
4 *142:B *19:10 0.000191255
5 *145:A *19:10 0
6 *15:10 *19:10 8.29264e-05
7 *16:10 *19:10 0
*RES
1 *142:X *19:10 42.3086 
2 *19:10 *149:A 38 
*END

*D_NET *20 0.00116686
*CONN
*I *150:A I *D sky130_fd_sc_hd__buf_2
*I *141:A_N I *D sky130_fd_sc_hd__and2b_1
*I *139:X O *D sky130_fd_sc_hd__and4_1
*CAP
1 *150:A 0
2 *141:A_N 0
3 *139:X 5.33183e-05
4 *20:21 0.000267733
5 *20:6 0.000321052
6 *140:A0 *20:6 0.000143655
7 *140:A0 *20:21 0.000130423
8 *14:12 *20:21 5.47927e-05
9 *14:38 *20:21 0
10 *18:10 *20:21 0.000195888
*RES
1 *139:X *20:6 24.5743 
2 *20:6 *141:A_N 23 
3 *20:6 *20:21 36.1107 
4 *20:21 *150:A 23 
*END
