*SPEF "ieee 1481-1999"
*DESIGN "SarsaNada_e6"
*DATE "11:45:26 Friday September 12, 2025"
*VENDOR "The OpenROAD Project"
*PROGRAM "OpenROAD"
*VERSION "edf00dff99f6c40d67a30c0e22a8191c5d2ed9d6"
*DESIGN_FLOW "NAME_SCOPE LOCAL" "PIN_CAP NONE"
*DIVIDER /
*DELIMITER :
*BUS_DELIMITER []
*T_UNIT 1 NS
*C_UNIT 1 PF
*R_UNIT 1 OHM
*L_UNIT 1 HENRY

*NAME_MAP
*1 A[0]
*2 A[1]
*3 B[0]
*4 B[1]
*5 P[0]
*6 P[1]
*7 P[2]
*8 P[3]
*11 _0_
*12 _1_
*13 _2_
*14 net1
*15 net2
*16 net3
*17 net4
*18 net5
*19 net6
*20 net7
*21 net8
*22 FILLER_0_15
*23 FILLER_0_27
*24 FILLER_0_29
*25 FILLER_0_3
*26 FILLER_0_41
*27 FILLER_0_49
*28 FILLER_0_55
*29 FILLER_0_57
*30 FILLER_0_69
*31 FILLER_1_15
*32 FILLER_1_27
*33 FILLER_1_3
*34 FILLER_1_39
*35 FILLER_1_51
*36 FILLER_1_55
*37 FILLER_1_57
*38 FILLER_1_69
*39 FILLER_2_15
*40 FILLER_2_27
*41 FILLER_2_29
*42 FILLER_2_3
*43 FILLER_2_41
*44 FILLER_2_53
*45 FILLER_2_65
*46 FILLER_2_77
*47 FILLER_3_15
*48 FILLER_3_27
*49 FILLER_3_3
*50 FILLER_3_39
*51 FILLER_3_51
*52 FILLER_3_55
*53 FILLER_3_57
*54 FILLER_3_69
*55 FILLER_4_18
*56 FILLER_4_26
*57 FILLER_4_29
*58 FILLER_4_35
*59 FILLER_4_41
*60 FILLER_4_53
*61 FILLER_4_6
*62 FILLER_4_65
*63 FILLER_4_77
*64 FILLER_5_25
*65 FILLER_5_29
*66 FILLER_5_33
*67 FILLER_5_45
*68 FILLER_5_53
*69 FILLER_5_57
*70 FILLER_5_69
*71 FILLER_5_7
*72 FILLER_6_18
*73 FILLER_6_26
*74 FILLER_6_29
*75 FILLER_6_41
*76 FILLER_6_53
*77 FILLER_6_6
*78 FILLER_6_65
*79 FILLER_6_77
*80 FILLER_7_18
*81 FILLER_7_30
*82 FILLER_7_42
*83 FILLER_7_54
*84 FILLER_7_57
*85 FILLER_7_6
*86 FILLER_7_69
*87 FILLER_8_11
*88 FILLER_8_20
*89 FILLER_8_3
*90 FILLER_8_38
*91 FILLER_8_50
*92 FILLER_8_62
*93 FILLER_8_74
*94 FILLER_8_80
*95 FILLER_9_19
*96 FILLER_9_27
*97 FILLER_9_29
*98 FILLER_9_37
*99 FILLER_9_42
*100 FILLER_9_48
*101 FILLER_9_57
*102 FILLER_9_69
*103 FILLER_9_7
*104 PHY_EDGE_ROW_0_Left_10
*105 PHY_EDGE_ROW_0_Right_0
*106 PHY_EDGE_ROW_1_Left_11
*107 PHY_EDGE_ROW_1_Right_1
*108 PHY_EDGE_ROW_2_Left_12
*109 PHY_EDGE_ROW_2_Right_2
*110 PHY_EDGE_ROW_3_Left_13
*111 PHY_EDGE_ROW_3_Right_3
*112 PHY_EDGE_ROW_4_Left_14
*113 PHY_EDGE_ROW_4_Right_4
*114 PHY_EDGE_ROW_5_Left_15
*115 PHY_EDGE_ROW_5_Right_5
*116 PHY_EDGE_ROW_6_Left_16
*117 PHY_EDGE_ROW_6_Right_6
*118 PHY_EDGE_ROW_7_Left_17
*119 PHY_EDGE_ROW_7_Right_7
*120 PHY_EDGE_ROW_8_Left_18
*121 PHY_EDGE_ROW_8_Right_8
*122 PHY_EDGE_ROW_9_Left_19
*123 PHY_EDGE_ROW_9_Right_9
*124 TAP_TAPCELL_ROW_0_20
*125 TAP_TAPCELL_ROW_0_21
*126 TAP_TAPCELL_ROW_1_22
*127 TAP_TAPCELL_ROW_2_23
*128 TAP_TAPCELL_ROW_3_24
*129 TAP_TAPCELL_ROW_4_25
*130 TAP_TAPCELL_ROW_5_26
*131 TAP_TAPCELL_ROW_6_27
*132 TAP_TAPCELL_ROW_7_28
*133 TAP_TAPCELL_ROW_8_29
*134 TAP_TAPCELL_ROW_9_30
*135 TAP_TAPCELL_ROW_9_31
*136 _3_
*137 _4_
*138 _5_
*139 _6_
*140 _7_
*141 _8_
*142 _9_
*143 input1
*144 input2
*145 input3
*146 input4
*147 output5
*148 output6
*149 output7
*150 output8

*PORTS
A[0] I
A[1] I
B[0] I
B[1] I
P[0] O
P[1] O
P[2] O
P[3] O

*D_NET *1 0.000553828
*CONN
*P A[0] I
*I *143:A I *D sky130_fd_sc_hd__buf_1
*CAP
1 A[0] 0.000252335
2 *143:A 0.000252335
3 *143:A P[0] 1.5289e-05
4 *143:A P[3] 0
5 *143:A *139:B1 0
6 *143:A *145:A 2.12457e-05
7 *143:A *5:14 1.26232e-05
*RES
1 A[0] *143:A 47.7832 
*END

*D_NET *2 0.000733319
*CONN
*P A[1] I
*I *144:A I *D sky130_fd_sc_hd__buf_1
*CAP
1 A[1] 0.000352215
2 *144:A 0
3 *2:17 0.000352215
4 *2:17 P[0] 2.43221e-05
5 *2:17 *5:14 4.56684e-06
*RES
1 A[1] *2:17 28.2148 
2 *2:17 *144:A 23 
*END

*D_NET *3 0.000618748
*CONN
*P B[0] I
*I *145:A I *D sky130_fd_sc_hd__buf_1
*CAP
1 B[0] 0.000284795
2 *145:A 0.000284795
3 *145:A P[3] 2.79122e-05
4 *143:A *145:A 2.12457e-05
*RES
1 B[0] *145:A 49.8062 
*END

*D_NET *4 0.00106467
*CONN
*P B[1] I
*I *146:A I *D sky130_fd_sc_hd__buf_1
*CAP
1 B[1] 0.000532336
2 *146:A 0.000532336
3 *146:A P[1] 0
4 *146:A *19:10 0
*RES
1 B[1] *146:A 49.6829 
*END

*D_NET *5 0.000763907
*CONN
*P P[0] O
*I *147:X O *D sky130_fd_sc_hd__buf_2
*CAP
1 P[0] 7.58295e-05
2 *147:X 0.000277724
3 *5:14 0.000353553
4 *143:A P[0] 1.5289e-05
5 *143:A *5:14 1.26232e-05
6 *2:17 P[0] 2.43221e-05
7 *2:17 *5:14 4.56684e-06
*RES
1 *147:X *5:14 49.9 
2 *5:14 P[0] 0.382667 
*END

*D_NET *6 0.00100375
*CONN
*P P[1] O
*I *148:X O *D sky130_fd_sc_hd__buf_2
*CAP
1 P[1] 0.000501876
2 *148:X 0.000501876
3 *146:A P[1] 0
*RES
1 *148:X P[1] 48.9786 
*END

*D_NET *7 0.000993477
*CONN
*P P[2] O
*I *149:X O *D sky130_fd_sc_hd__buf_2
*CAP
1 P[2] 0.000496739
2 *149:X 0.000496739
*RES
1 *149:X P[2] 47.86 
*END

*D_NET *8 0.000720475
*CONN
*P P[3] O
*I *150:X O *D sky130_fd_sc_hd__buf_2
*CAP
1 P[3] 0.000315449
2 *150:X 0.000315449
3 P[3] *21:12 6.16635e-05
4 *143:A P[3] 0
5 *145:A P[3] 2.79122e-05
*RES
1 *150:X P[3] 48.5734 
*END

*D_NET *11 0.000110687
*CONN
*I *139:A2 I *D sky130_fd_sc_hd__a21o_1
*I *138:X O *D sky130_fd_sc_hd__o21ba_1
*CAP
1 *139:A2 7.99798e-06
2 *138:X 7.99798e-06
3 *139:A2 *136:A 1.32314e-05
4 *139:A2 *138:B1_N 5.67058e-05
5 *139:A2 *139:A1 2.4754e-05
*RES
1 *138:X *139:A2 46.6214 
*END

*D_NET *12 0.000414396
*CONN
*I *141:B I *D sky130_fd_sc_hd__nor2_1
*I *140:Y O *D sky130_fd_sc_hd__a22oi_1
*CAP
1 *141:B 0
2 *140:Y 0.000177831
3 *12:16 0.000177831
4 *12:16 *140:A1 1.15171e-05
5 *12:16 *140:A2 3.97026e-05
6 *12:16 *19:10 7.51453e-06
*RES
1 *140:Y *12:16 27.3086 
2 *12:16 *141:B 23 
*END

*D_NET *13 0.000963773
*CONN
*I *142:C I *D sky130_fd_sc_hd__and3_1
*I *136:Y O *D sky130_fd_sc_hd__nand2_1
*CAP
1 *142:C 1.56571e-05
2 *136:Y 0.000458834
3 *13:10 0.000474491
4 *142:C *142:B 2.45549e-06
5 *13:10 *136:A 1.23353e-05
*RES
1 *136:Y *13:10 44.09 
2 *13:10 *142:C 38.2279 
*END

*D_NET *14 0.00425971
*CONN
*I *140:B2 I *D sky130_fd_sc_hd__a22oi_1
*I *137:D I *D sky130_fd_sc_hd__and4_1
*I *138:A2 I *D sky130_fd_sc_hd__o21ba_1
*I *136:B I *D sky130_fd_sc_hd__nand2_1
*I *143:X O *D sky130_fd_sc_hd__buf_1
*CAP
1 *140:B2 6.86444e-05
2 *137:D 7.86503e-05
3 *138:A2 0
4 *136:B 0.000198414
5 *143:X 0.000661287
6 *14:32 0.000363745
7 *14:12 0.00035276
8 *14:8 0.00103208
9 *136:B *136:A 0.000207016
10 *136:B *138:B1_N 1.37232e-05
11 *137:D *140:A1 7.1349e-05
12 *137:D *140:A2 0.000227208
13 *137:D *15:31 9.84794e-05
14 *137:D *16:36 9.84851e-05
15 *137:D *17:35 1.57571e-05
16 *140:B2 *140:A1 0.000173452
17 *140:B2 *140:A2 0.000300817
18 *14:12 *15:31 0
19 *14:12 *16:12 0
20 *14:12 *17:20 6.07611e-06
21 *14:12 *17:35 0.000134585
22 *14:32 *16:12 0
23 *14:32 *17:35 0.000157174
*RES
1 *143:X *14:8 46.2443 
2 *14:8 *14:12 18.6664 
3 *14:12 *136:B 27.9507 
4 *14:12 *138:A2 23 
5 *14:8 *14:32 19.3707 
6 *14:32 *137:D 26.48 
7 *14:32 *140:B2 26.48 
*END

*D_NET *15 0.00610769
*CONN
*I *138:B1_N I *D sky130_fd_sc_hd__o21ba_1
*I *140:A2 I *D sky130_fd_sc_hd__a22oi_1
*I *137:B I *D sky130_fd_sc_hd__and4_1
*I *142:A I *D sky130_fd_sc_hd__and3_1
*I *144:X O *D sky130_fd_sc_hd__buf_1
*CAP
1 *138:B1_N 0.00012002
2 *140:A2 0.000545956
3 *137:B 0
4 *142:A 0
5 *144:X 9.84571e-05
6 *15:31 0.000913391
7 *15:20 0.000697714
8 *15:14 0.00106515
9 *15:12 0.000326164
10 *15:8 0.000304602
11 *138:B1_N *136:A 4.95081e-05
12 *138:B1_N *139:A1 1.76557e-05
13 *140:A2 *140:A1 0.000110485
14 *15:12 *147:A 0.000230604
15 *15:20 *142:B 5.50011e-05
16 *15:20 *17:20 9.71035e-05
17 *15:31 *139:B1 0.000438156
18 *15:31 *16:12 0.000144455
19 *15:31 *16:36 2.01531e-05
20 *15:31 *17:20 0
21 *15:31 *21:21 0.000136486
22 *136:B *138:B1_N 1.37232e-05
23 *137:D *140:A2 0.000227208
24 *137:D *15:31 9.84794e-05
25 *139:A2 *138:B1_N 5.67058e-05
26 *140:B2 *140:A2 0.000300817
27 *12:16 *140:A2 3.97026e-05
28 *14:12 *15:31 0
*RES
1 *144:X *15:8 39.9057 
2 *15:8 *15:12 19.4329 
3 *15:12 *15:14 15 
4 *15:14 *15:20 28.9407 
5 *15:20 *142:A 23 
6 *15:14 *15:31 24.4664 
7 *15:31 *137:B 23 
8 *15:31 *140:A2 32.4975 
9 *15:12 *138:B1_N 26.0243 
*END

*D_NET *16 0.0045557
*CONN
*I *140:A1 I *D sky130_fd_sc_hd__a22oi_1
*I *137:A I *D sky130_fd_sc_hd__and4_1
*I *136:A I *D sky130_fd_sc_hd__nand2_1
*I *139:A1 I *D sky130_fd_sc_hd__a21o_1
*I *145:X O *D sky130_fd_sc_hd__buf_1
*CAP
1 *140:A1 0.000261512
2 *137:A 0
3 *136:A 0.000412144
4 *139:A1 6.78897e-05
5 *145:X 0.00044131
6 *16:36 0.000416115
7 *16:12 0.000750479
8 *16:8 0.000866358
9 *140:A1 *17:35 0.000242626
10 *16:8 *21:38 9.62666e-05
11 *16:36 *17:35 4.66047e-05
12 *136:B *136:A 0.000207016
13 *137:D *140:A1 7.1349e-05
14 *137:D *16:36 9.84851e-05
15 *138:B1_N *136:A 4.95081e-05
16 *138:B1_N *139:A1 1.76557e-05
17 *139:A2 *136:A 1.32314e-05
18 *139:A2 *139:A1 2.4754e-05
19 *140:A2 *140:A1 0.000110485
20 *140:B2 *140:A1 0.000173452
21 *12:16 *140:A1 1.15171e-05
22 *13:10 *136:A 1.23353e-05
23 *14:12 *16:12 0
24 *14:32 *16:12 0
25 *15:31 *16:12 0.000144455
26 *15:31 *16:36 2.01531e-05
*RES
1 *145:X *16:8 43.8621 
2 *16:8 *16:12 20.7793 
3 *16:12 *139:A1 24.0979 
4 *16:12 *136:A 31.2857 
5 *16:8 *16:36 18.0036 
6 *16:36 *137:A 23 
7 *16:36 *140:A1 30.83 
*END

*D_NET *17 0.00524975
*CONN
*I *140:B1 I *D sky130_fd_sc_hd__a22oi_1
*I *142:B I *D sky130_fd_sc_hd__and3_1
*I *137:C I *D sky130_fd_sc_hd__and4_1
*I *138:A1 I *D sky130_fd_sc_hd__o21ba_1
*I *146:X O *D sky130_fd_sc_hd__buf_1
*CAP
1 *140:B1 0
2 *142:B 0.000246826
3 *137:C 0
4 *138:A1 0
5 *146:X 0.000677484
6 *17:35 0.000556707
7 *17:20 0.000896188
8 *17:14 0.00101199
9 *17:10 0.00110317
10 *17:10 *19:10 0
11 *17:10 *21:38 0
12 *17:14 *21:38 0
13 *137:D *17:35 1.57571e-05
14 *140:A1 *17:35 0.000242626
15 *142:C *142:B 2.45549e-06
16 *14:12 *17:20 6.07611e-06
17 *14:12 *17:35 0.000134585
18 *14:32 *17:35 0.000157174
19 *15:20 *142:B 5.50011e-05
20 *15:20 *17:20 9.71035e-05
21 *15:31 *17:20 0
22 *16:36 *17:35 4.66047e-05
*RES
1 *146:X *17:10 47.0729 
2 *17:10 *17:14 25.3571 
3 *17:14 *17:20 20.7379 
4 *17:20 *138:A1 38 
5 *17:20 *17:35 28.7543 
6 *17:35 *137:C 23 
7 *17:14 *142:B 26.48 
8 *17:10 *140:B1 38 
*END

*D_NET *18 0.000401783
*CONN
*I *147:A I *D sky130_fd_sc_hd__buf_2
*I *139:X O *D sky130_fd_sc_hd__a21o_1
*CAP
1 *147:A 8.55898e-05
2 *139:X 8.55898e-05
3 *15:12 *147:A 0.000230604
*RES
1 *139:X *147:A 48.5271 
*END

*D_NET *19 0.000369547
*CONN
*I *148:A I *D sky130_fd_sc_hd__buf_2
*I *141:Y O *D sky130_fd_sc_hd__nor2_1
*CAP
1 *148:A 0
2 *141:Y 0.000181016
3 *19:10 0.000181016
4 *146:A *19:10 0
5 *12:16 *19:10 7.51453e-06
6 *17:10 *19:10 0
*RES
1 *141:Y *19:10 40.8793 
2 *19:10 *148:A 38 
*END

*D_NET *20 0.00153861
*CONN
*I *149:A I *D sky130_fd_sc_hd__buf_2
*I *142:X O *D sky130_fd_sc_hd__and3_1
*CAP
1 *149:A 0.000563486
2 *142:X 0.000205821
3 *20:8 0.000769307
*RES
1 *142:X *20:8 40.5271 
2 *20:8 *149:A 48.7093 
*END

*D_NET *21 0.00388845
*CONN
*I *141:A I *D sky130_fd_sc_hd__nor2_1
*I *139:B1 I *D sky130_fd_sc_hd__a21o_1
*I *150:A I *D sky130_fd_sc_hd__buf_2
*I *137:X O *D sky130_fd_sc_hd__and4_1
*CAP
1 *141:A 0
2 *139:B1 0.000217395
3 *150:A 0
4 *137:X 0
5 *21:38 0.00081211
6 *21:21 0.00112239
7 *21:12 0.000455544
8 *21:4 0.000548433
9 P[3] *21:12 6.16635e-05
10 *143:A *139:B1 0
11 *15:31 *139:B1 0.000438156
12 *15:31 *21:21 0.000136486
13 *16:8 *21:38 9.62666e-05
14 *17:10 *21:38 0
15 *17:14 *21:38 0
*RES
1 *137:X *21:4 23 
2 *21:4 *21:12 37.4986 
3 *21:12 *150:A 23 
4 *21:4 *21:21 16.9057 
5 *21:21 *139:B1 43.7793 
6 *21:21 *21:38 43.2364 
7 *21:38 *141:A 38 
*END
