*SPEF "ieee 1481-1999"
*DESIGN "SarsaNada_e10"
*DATE "14:06:12 Tuesday September 16, 2025"
*VENDOR "The OpenROAD Project"
*PROGRAM "OpenROAD"
*VERSION "edf00dff99f6c40d67a30c0e22a8191c5d2ed9d6"
*DESIGN_FLOW "NAME_SCOPE LOCAL" "PIN_CAP NONE"
*DIVIDER /
*DELIMITER :
*BUS_DELIMITER []
*T_UNIT 1 NS
*C_UNIT 1 PF
*R_UNIT 1 OHM
*L_UNIT 1 HENRY

*NAME_MAP
*1 A[0]
*2 A[1]
*3 B[0]
*4 B[1]
*5 P[0]
*6 P[1]
*7 P[2]
*8 net7
*11 net1
*12 net2
*13 net3
*14 net4
*15 net5
*16 net6
*17 pp0
*18 pp1
*19 pp2
*20 FILLER_0_15
*21 FILLER_0_27
*22 FILLER_0_29
*23 FILLER_0_3
*24 FILLER_0_41
*25 FILLER_0_53
*26 FILLER_0_57
*27 FILLER_0_69
*28 FILLER_1_15
*29 FILLER_1_27
*30 FILLER_1_3
*31 FILLER_1_39
*32 FILLER_1_51
*33 FILLER_1_55
*34 FILLER_1_57
*35 FILLER_1_69
*36 FILLER_2_15
*37 FILLER_2_27
*38 FILLER_2_29
*39 FILLER_2_3
*40 FILLER_2_41
*41 FILLER_2_53
*42 FILLER_2_65
*43 FILLER_2_77
*44 FILLER_3_15
*45 FILLER_3_24
*46 FILLER_3_3
*47 FILLER_3_36
*48 FILLER_3_48
*49 FILLER_3_57
*50 FILLER_3_69
*51 FILLER_4_17
*52 FILLER_4_25
*53 FILLER_4_29
*54 FILLER_4_41
*55 FILLER_4_53
*56 FILLER_4_6
*57 FILLER_4_65
*58 FILLER_5_20
*59 FILLER_5_24
*60 FILLER_5_36
*61 FILLER_5_48
*62 FILLER_5_57
*63 FILLER_5_6
*64 FILLER_5_69
*65 FILLER_6_16
*66 FILLER_6_29
*67 FILLER_6_41
*68 FILLER_6_53
*69 FILLER_6_65
*70 FILLER_6_7
*71 FILLER_6_77
*72 FILLER_7_18
*73 FILLER_7_30
*74 FILLER_7_42
*75 FILLER_7_54
*76 FILLER_7_57
*77 FILLER_7_6
*78 FILLER_7_69
*79 FILLER_8_15
*80 FILLER_8_27
*81 FILLER_8_29
*82 FILLER_8_3
*83 FILLER_8_41
*84 FILLER_8_53
*85 FILLER_8_65
*86 FILLER_8_77
*87 FILLER_9_15
*88 FILLER_9_27
*89 FILLER_9_29
*90 FILLER_9_3
*91 FILLER_9_41
*92 FILLER_9_53
*93 FILLER_9_57
*94 FILLER_9_69
*95 PHY_EDGE_ROW_0_Left_10
*96 PHY_EDGE_ROW_0_Right_0
*97 PHY_EDGE_ROW_1_Left_11
*98 PHY_EDGE_ROW_1_Right_1
*99 PHY_EDGE_ROW_2_Left_12
*100 PHY_EDGE_ROW_2_Right_2
*101 PHY_EDGE_ROW_3_Left_13
*102 PHY_EDGE_ROW_3_Right_3
*103 PHY_EDGE_ROW_4_Left_14
*104 PHY_EDGE_ROW_4_Right_4
*105 PHY_EDGE_ROW_5_Left_15
*106 PHY_EDGE_ROW_5_Right_5
*107 PHY_EDGE_ROW_6_Left_16
*108 PHY_EDGE_ROW_6_Right_6
*109 PHY_EDGE_ROW_7_Left_17
*110 PHY_EDGE_ROW_7_Right_7
*111 PHY_EDGE_ROW_8_Left_18
*112 PHY_EDGE_ROW_8_Right_8
*113 PHY_EDGE_ROW_9_Left_19
*114 PHY_EDGE_ROW_9_Right_9
*115 SarsaNada_e10_7
*116 TAP_TAPCELL_ROW_0_20
*117 TAP_TAPCELL_ROW_0_21
*118 TAP_TAPCELL_ROW_1_22
*119 TAP_TAPCELL_ROW_2_23
*120 TAP_TAPCELL_ROW_3_24
*121 TAP_TAPCELL_ROW_4_25
*122 TAP_TAPCELL_ROW_5_26
*123 TAP_TAPCELL_ROW_6_27
*124 TAP_TAPCELL_ROW_7_28
*125 TAP_TAPCELL_ROW_8_29
*126 TAP_TAPCELL_ROW_9_30
*127 TAP_TAPCELL_ROW_9_31
*128 _0_
*129 _1_
*130 _2_
*131 _4_
*132 _5_
*133 _6_
*134 input1
*135 input2
*136 input3
*137 output4
*138 output5
*139 output6

*PORTS
A[0] I
A[1] I
B[0] I
B[1] I
P[0] O
P[1] O
P[2] O
P[3] O

*D_NET *1 0.000641155
*CONN
*P A[0] I
*I *134:A I *D sky130_fd_sc_hd__clkbuf_1
*CAP
1 A[0] 0.000305759
2 *134:A 0.000305759
3 *134:A *136:A 2.96366e-05
*RES
1 A[0] *134:A 7.8543 
*END

*D_NET *2 0.000532809
*CONN
*P A[1] I
*I *135:A I *D sky130_fd_sc_hd__buf_1
*CAP
1 A[1] 0.000255159
2 *135:A 0.000255159
3 *135:A P[0] 2.24901e-05
*RES
1 A[1] *135:A 6.8343 
*END

*D_NET *4 0.000623243
*CONN
*P B[1] I
*I *136:A I *D sky130_fd_sc_hd__clkbuf_1
*CAP
1 B[1] 0.00028255
2 *136:A 0.00028255
3 *136:A P[0] 2.85068e-05
4 *134:A *136:A 2.96366e-05
*RES
1 B[1] *136:A 7.5993 
*END

*D_NET *5 0.000493804
*CONN
*P P[0] O
*I *137:X O *D sky130_fd_sc_hd__buf_2
*CAP
1 P[0] 0.00021661
2 *137:X 0.00021661
3 P[0] *137:A 9.58678e-06
4 *135:A P[0] 2.24901e-05
5 *136:A P[0] 2.85068e-05
*RES
1 *137:X P[0] 4.90503 
*END

*D_NET *6 0.000597683
*CONN
*P P[1] O
*I *138:X O *D sky130_fd_sc_hd__buf_2
*CAP
1 P[1] 0.000222223
2 *138:X 0.000222223
3 P[1] P[2] 9.25475e-05
4 P[1] *138:A 6.06899e-05
*RES
1 *138:X P[1] 5.92503 
*END

*D_NET *7 0.000534416
*CONN
*P P[2] O
*I *139:X O *D sky130_fd_sc_hd__buf_2
*CAP
1 P[2] 0.000178266
2 *139:X 0.000178266
3 P[2] P[3] 8.53361e-05
4 P[1] P[2] 9.25475e-05
*RES
1 *139:X P[2] 5.41503 
*END

*D_NET *8 0.000469235
*CONN
*P P[3] O
*I *115:LO O *D sky130_fd_sc_hd__conb_1
*CAP
1 P[3] 0.000191949
2 *115:LO 0.000191949
3 P[2] P[3] 8.53361e-05
*RES
1 *115:LO P[3] 5.35677 
*END

*D_NET *11 0.000514911
*CONN
*I *130:B I *D sky130_fd_sc_hd__and2_1
*I *134:X O *D sky130_fd_sc_hd__clkbuf_1
*CAP
1 *130:B 0.000257455
2 *134:X 0.000257455
*RES
1 *134:X *130:B 7.13 
*END

*D_NET *12 0.000969701
*CONN
*I *128:A I *D sky130_fd_sc_hd__inv_2
*I *129:A I *D sky130_fd_sc_hd__and2_1
*I *135:X O *D sky130_fd_sc_hd__buf_1
*CAP
1 *128:A 0
2 *129:A 0.000121505
3 *135:X 0.000363346
4 *12:10 0.000484851
5 *129:A *131:A 0
6 *129:A *137:A 0
*RES
1 *135:X *12:10 8.1 
2 *12:10 *129:A 5.49 
3 *12:10 *128:A 3.6 
*END

*D_NET *13 0.000839676
*CONN
*I *129:B I *D sky130_fd_sc_hd__and2_1
*I *130:A I *D sky130_fd_sc_hd__and2_1
*I *136:X O *D sky130_fd_sc_hd__clkbuf_1
*CAP
1 *129:B 5.76465e-05
2 *130:A 0.000147335
3 *136:X 0.000147927
4 *13:8 0.000352908
5 *129:B *133:A 0
6 *129:B *137:A 3.45679e-05
7 *13:8 *137:A 9.92913e-05
*RES
1 *136:X *13:8 4.48 
2 *13:8 *130:A 7.745 
3 *13:8 *129:B 2.755 
*END

*D_NET *14 0.000973287
*CONN
*I *137:A I *D sky130_fd_sc_hd__buf_2
*I *131:X O *D sky130_fd_sc_hd__clkbuf_1
*CAP
1 *137:A 0.00038994
2 *131:X 0.00038994
3 *137:A *133:A 4.99619e-05
4 P[0] *137:A 9.58678e-06
5 *129:A *137:A 0
6 *129:B *137:A 3.45679e-05
7 *13:8 *137:A 9.92913e-05
*RES
1 *131:X *137:A 12.48 
*END

*D_NET *15 0.00303533
*CONN
*I *138:A I *D sky130_fd_sc_hd__buf_2
*I *132:X O *D sky130_fd_sc_hd__clkbuf_1
*CAP
1 *138:A 0.00148732
2 *132:X 0.00148732
3 P[1] *138:A 6.06899e-05
*RES
1 *132:X *138:A 28.335 
*END

*D_NET *16 0.0027418
*CONN
*I *139:A I *D sky130_fd_sc_hd__buf_2
*I *133:X O *D sky130_fd_sc_hd__clkbuf_1
*CAP
1 *139:A 0.0013709
2 *133:X 0.0013709
*RES
1 *133:X *139:A 22.655 
*END

*D_NET *17 0.000327462
*CONN
*I *133:A I *D sky130_fd_sc_hd__clkbuf_1
*I *129:X O *D sky130_fd_sc_hd__and2_1
*CAP
1 *133:A 0.00013875
2 *129:X 0.00013875
3 *129:B *133:A 0
4 *137:A *133:A 4.99619e-05
*RES
1 *129:X *133:A 5.39 
*END

*D_NET *18 0.000516278
*CONN
*I *132:A I *D sky130_fd_sc_hd__clkbuf_1
*I *130:X O *D sky130_fd_sc_hd__and2_1
*CAP
1 *132:A 0.000258139
2 *130:X 0.000258139
*RES
1 *130:X *132:A 10.41 
*END

*D_NET *19 0.00052217
*CONN
*I *131:A I *D sky130_fd_sc_hd__clkbuf_1
*I *128:Y O *D sky130_fd_sc_hd__inv_2
*CAP
1 *131:A 0.000261085
2 *128:Y 0.000261085
3 *129:A *131:A 0
*RES
1 *128:Y *131:A 10.41 
*END
