*SPEF "ieee 1481-1999"
*DESIGN "SarsaNada_e8"
*DATE "18:22:21 Tuesday September 16, 2025"
*VENDOR "The OpenROAD Project"
*PROGRAM "OpenROAD"
*VERSION "edf00dff99f6c40d67a30c0e22a8191c5d2ed9d6"
*DESIGN_FLOW "NAME_SCOPE LOCAL" "PIN_CAP NONE"
*DIVIDER /
*DELIMITER :
*BUS_DELIMITER []
*T_UNIT 1 NS
*C_UNIT 1 PF
*R_UNIT 1 OHM
*L_UNIT 1 HENRY

*NAME_MAP
*1 A[0]
*2 A[1]
*3 B[0]
*4 B[1]
*5 P[0]
*6 P[1]
*7 P[2]
*8 P[3]
*11 _0_
*12 _1_
*13 net1
*14 net2
*15 net3
*16 net4
*17 net5
*18 net6
*19 net7
*20 net8
*21 FILLER_0_15
*22 FILLER_0_27
*23 FILLER_0_29
*24 FILLER_0_3
*25 FILLER_0_41
*26 FILLER_0_53
*27 FILLER_0_57
*28 FILLER_0_69
*29 FILLER_1_15
*30 FILLER_1_27
*31 FILLER_1_3
*32 FILLER_1_39
*33 FILLER_1_51
*34 FILLER_1_55
*35 FILLER_1_57
*36 FILLER_1_69
*37 FILLER_2_15
*38 FILLER_2_27
*39 FILLER_2_29
*40 FILLER_2_3
*41 FILLER_2_41
*42 FILLER_2_53
*43 FILLER_2_65
*44 FILLER_2_77
*45 FILLER_3_15
*46 FILLER_3_27
*47 FILLER_3_3
*48 FILLER_3_39
*49 FILLER_3_51
*50 FILLER_3_55
*51 FILLER_3_57
*52 FILLER_3_69
*53 FILLER_4_14
*54 FILLER_4_20
*55 FILLER_4_29
*56 FILLER_4_41
*57 FILLER_4_53
*58 FILLER_4_6
*59 FILLER_4_65
*60 FILLER_5_26
*61 FILLER_5_30
*62 FILLER_5_42
*63 FILLER_5_54
*64 FILLER_5_57
*65 FILLER_5_6
*66 FILLER_5_69
*67 FILLER_6_18
*68 FILLER_6_26
*69 FILLER_6_29
*70 FILLER_6_41
*71 FILLER_6_53
*72 FILLER_6_6
*73 FILLER_6_65
*74 FILLER_6_70
*75 FILLER_6_76
*76 FILLER_7_18
*77 FILLER_7_30
*78 FILLER_7_42
*79 FILLER_7_54
*80 FILLER_7_57
*81 FILLER_7_6
*82 FILLER_7_69
*83 FILLER_8_15
*84 FILLER_8_27
*85 FILLER_8_29
*86 FILLER_8_3
*87 FILLER_8_41
*88 FILLER_8_53
*89 FILLER_8_65
*90 FILLER_8_77
*91 FILLER_9_15
*92 FILLER_9_27
*93 FILLER_9_29
*94 FILLER_9_3
*95 FILLER_9_41
*96 FILLER_9_53
*97 FILLER_9_57
*98 FILLER_9_69
*99 PHY_EDGE_ROW_0_Left_10
*100 PHY_EDGE_ROW_0_Right_0
*101 PHY_EDGE_ROW_1_Left_11
*102 PHY_EDGE_ROW_1_Right_1
*103 PHY_EDGE_ROW_2_Left_12
*104 PHY_EDGE_ROW_2_Right_2
*105 PHY_EDGE_ROW_3_Left_13
*106 PHY_EDGE_ROW_3_Right_3
*107 PHY_EDGE_ROW_4_Left_14
*108 PHY_EDGE_ROW_4_Right_4
*109 PHY_EDGE_ROW_5_Left_15
*110 PHY_EDGE_ROW_5_Right_5
*111 PHY_EDGE_ROW_6_Left_16
*112 PHY_EDGE_ROW_6_Right_6
*113 PHY_EDGE_ROW_7_Left_17
*114 PHY_EDGE_ROW_7_Right_7
*115 PHY_EDGE_ROW_8_Left_18
*116 PHY_EDGE_ROW_8_Right_8
*117 PHY_EDGE_ROW_9_Left_19
*118 PHY_EDGE_ROW_9_Right_9
*119 TAP_TAPCELL_ROW_0_20
*120 TAP_TAPCELL_ROW_0_21
*121 TAP_TAPCELL_ROW_1_22
*122 TAP_TAPCELL_ROW_2_23
*123 TAP_TAPCELL_ROW_3_24
*124 TAP_TAPCELL_ROW_4_25
*125 TAP_TAPCELL_ROW_5_26
*126 TAP_TAPCELL_ROW_6_27
*127 TAP_TAPCELL_ROW_7_28
*128 TAP_TAPCELL_ROW_8_29
*129 TAP_TAPCELL_ROW_9_30
*130 TAP_TAPCELL_ROW_9_31
*131 _2_
*132 _3_
*133 _4_
*134 _5_
*135 _6_
*136 _7_
*137 input1
*138 input2
*139 input3
*140 input4
*141 output5
*142 output6
*143 output7
*144 output8

*PORTS
A[0] I
A[1] I
B[0] I
B[1] I
P[0] O
P[1] O
P[2] O
P[3] O

*D_NET *1 0.000641155
*CONN
*P A[0] I
*I *137:A I *D sky130_fd_sc_hd__buf_1
*CAP
1 A[0] 0.000305759
2 *137:A 0.000305759
3 *137:A *139:A 2.96366e-05
*RES
1 A[0] *137:A 7.8543 
*END

*D_NET *2 0.000532809
*CONN
*P A[1] I
*I *138:A I *D sky130_fd_sc_hd__clkbuf_1
*CAP
1 A[1] 0.000255159
2 *138:A 0.000255159
3 *138:A *140:A 2.24901e-05
*RES
1 A[1] *138:A 6.8343 
*END

*D_NET *3 0.000623243
*CONN
*P B[0] I
*I *139:A I *D sky130_fd_sc_hd__clkbuf_1
*CAP
1 B[0] 0.00028255
2 *139:A 0.00028255
3 *139:A *140:A 2.85068e-05
4 *137:A *139:A 2.96366e-05
*RES
1 B[0] *139:A 7.5993 
*END

*D_NET *4 0.000523348
*CONN
*P B[1] I
*I *140:A I *D sky130_fd_sc_hd__clkbuf_1
*CAP
1 B[1] 0.000231382
2 *140:A 0.000231382
3 *140:A *14:12 0
4 *140:A *16:12 9.58678e-06
5 *138:A *140:A 2.24901e-05
6 *139:A *140:A 2.85068e-05
*RES
1 B[1] *140:A 5.35677 
*END

*D_NET *5 0.000457617
*CONN
*P P[0] O
*I *141:X O *D sky130_fd_sc_hd__buf_2
*CAP
1 P[0] 0.000186489
2 *141:X 0.000186489
3 P[0] P[2] 8.4638e-05
4 P[0] *141:A 0
*RES
1 *141:X P[0] 4.90503 
*END

*D_NET *6 0.000537919
*CONN
*P P[1] O
*I *142:X O *D sky130_fd_sc_hd__buf_2
*CAP
1 P[1] 0.000174193
2 *142:X 0.000174193
3 P[1] P[2] 9.25475e-05
4 P[1] P[3] 9.25475e-05
5 P[1] *143:A 4.43871e-06
*RES
1 *142:X P[1] 5.41503 
*END

*D_NET *7 0.000469934
*CONN
*P P[2] O
*I *143:X O *D sky130_fd_sc_hd__buf_2
*CAP
1 P[2] 0.000140519
2 *143:X 0.000140519
3 P[2] *143:A 1.17114e-05
4 P[0] P[2] 8.4638e-05
5 P[1] P[2] 9.25475e-05
*RES
1 *143:X P[2] 4.90503 
*END

*D_NET *8 0.000584515
*CONN
*P P[3] O
*I *144:X O *D sky130_fd_sc_hd__buf_2
*CAP
1 P[3] 0.000245984
2 *144:X 0.000245984
3 P[1] P[3] 9.25475e-05
*RES
1 *144:X P[3] 5.92503 
*END

*D_NET *11 0.000479714
*CONN
*I *135:A1 I *D sky130_fd_sc_hd__o211a_1
*I *131:Y O *D sky130_fd_sc_hd__inv_2
*CAP
1 *135:A1 3.76881e-05
2 *131:Y 3.76881e-05
3 *135:A1 *131:A 0.000152288
4 *135:A1 *134:A 0.000235867
5 *135:A1 *20:12 1.61831e-05
*RES
1 *131:Y *135:A1 5.39 
*END

*D_NET *12 0.00117852
*CONN
*I *134:A I *D sky130_fd_sc_hd__nor2_1
*I *135:A2 I *D sky130_fd_sc_hd__o211a_1
*I *132:Y O *D sky130_fd_sc_hd__inv_2
*CAP
1 *134:A 0.00027988
2 *135:A2 0
3 *132:Y 0.000135653
4 *12:10 0.000415533
5 *134:A *131:A 1.03423e-05
6 *134:A *135:B1 5.58436e-05
7 *134:A *20:12 4.54034e-05
8 *12:10 *133:D 0
9 *135:A1 *134:A 0.000235867
*RES
1 *132:Y *12:10 7.235 
2 *12:10 *135:A2 1.6 
3 *12:10 *134:A 6.04 
*END

*D_NET *13 0.00103217
*CONN
*I *133:D I *D sky130_fd_sc_hd__and4_1
*I *132:A I *D sky130_fd_sc_hd__inv_2
*I *137:X O *D sky130_fd_sc_hd__buf_1
*CAP
1 *133:D 0.000119487
2 *132:A 0.000169512
3 *137:X 0.000227086
4 *13:6 0.000516084
5 *12:10 *133:D 0
*RES
1 *137:X *13:6 4.12 
2 *13:6 *132:A 4.3 
3 *13:6 *133:D 7.235 
*END

*D_NET *14 0.00137578
*CONN
*I *135:B1 I *D sky130_fd_sc_hd__o211a_1
*I *133:C I *D sky130_fd_sc_hd__and4_1
*I *138:X O *D sky130_fd_sc_hd__clkbuf_1
*CAP
1 *135:B1 0.000169937
2 *133:C 0
3 *138:X 0.000384982
4 *14:12 0.000554919
5 *135:B1 *131:A 2.66586e-05
6 *135:B1 *135:C1 0.000183442
7 *14:12 *16:12 0
8 *134:A *135:B1 5.58436e-05
9 *140:A *14:12 0
*RES
1 *138:X *14:12 10.685 
2 *14:12 *133:C 1.6 
3 *14:12 *135:B1 4.39 
*END

*D_NET *15 0.00138378
*CONN
*I *133:B I *D sky130_fd_sc_hd__and4_1
*I *131:A I *D sky130_fd_sc_hd__inv_2
*I *139:X O *D sky130_fd_sc_hd__clkbuf_1
*CAP
1 *133:B 0
2 *131:A 0.000198624
3 *139:X 0.000102277
4 *15:8 0.000300901
5 *131:A *135:C1 7.67345e-05
6 *131:A *20:12 0.000312778
7 *15:8 *135:C1 7.66083e-05
8 *15:8 *16:12 0.00012657
9 *134:A *131:A 1.03423e-05
10 *135:A1 *131:A 0.000152288
11 *135:B1 *131:A 2.66586e-05
*RES
1 *139:X *15:8 4.045 
2 *15:8 *131:A 7.525 
3 *15:8 *133:B 1.6 
*END

*D_NET *16 0.000924522
*CONN
*I *135:C1 I *D sky130_fd_sc_hd__o211a_1
*I *133:A I *D sky130_fd_sc_hd__and4_1
*I *140:X O *D sky130_fd_sc_hd__clkbuf_1
*CAP
1 *135:C1 9.62478e-05
2 *133:A 0
3 *140:X 0.000129542
4 *16:12 0.00022579
5 *131:A *135:C1 7.67345e-05
6 *135:B1 *135:C1 0.000183442
7 *140:A *16:12 9.58678e-06
8 *14:12 *16:12 0
9 *15:8 *135:C1 7.66083e-05
10 *15:8 *16:12 0.00012657
*RES
1 *140:X *16:12 7.865 
2 *16:12 *133:A 1.6 
3 *16:12 *135:C1 4.48 
*END

*D_NET *17 0.00059275
*CONN
*I *141:A I *D sky130_fd_sc_hd__buf_2
*I *136:X O *D sky130_fd_sc_hd__clkbuf_1
*CAP
1 *141:A 0.000296375
2 *136:X 0.000296375
3 P[0] *141:A 0
*RES
1 *136:X *141:A 11.7 
*END

*D_NET *18 0.00338639
*CONN
*I *142:A I *D sky130_fd_sc_hd__buf_2
*I *134:Y O *D sky130_fd_sc_hd__nor2_1
*CAP
1 *142:A 0.00089273
2 *134:Y 0.00089273
3 *142:A *143:A 0.000128707
4 *142:A *20:12 1.61831e-05
5 *142:A *20:21 0.00145604
*RES
1 *134:Y *142:A 20.57 
*END

*D_NET *19 0.00421402
*CONN
*I *143:A I *D sky130_fd_sc_hd__buf_2
*I *135:X O *D sky130_fd_sc_hd__o211a_1
*CAP
1 *143:A 0.00159601
2 *135:X 0.00159601
3 *143:A *136:A 0
4 *143:A *144:A 0
5 *143:A *20:12 0.000279787
6 *143:A *20:21 0.000597357
7 P[1] *143:A 4.43871e-06
8 P[2] *143:A 1.17114e-05
9 *142:A *143:A 0.000128707
*RES
1 *135:X *143:A 28.935 
*END

*D_NET *20 0.00483606
*CONN
*I *136:A I *D sky130_fd_sc_hd__clkbuf_1
*I *144:A I *D sky130_fd_sc_hd__buf_2
*I *134:B I *D sky130_fd_sc_hd__nor2_1
*I *133:X O *D sky130_fd_sc_hd__and4_1
*CAP
1 *136:A 0.000121024
2 *144:A 0.000390196
3 *134:B 0
4 *133:X 0.000292776
5 *20:21 0.000763385
6 *20:12 0.000544941
7 *131:A *20:12 0.000312778
8 *134:A *20:12 4.54034e-05
9 *135:A1 *20:12 1.61831e-05
10 *142:A *20:12 1.61831e-05
11 *142:A *20:21 0.00145604
12 *143:A *136:A 0
13 *143:A *144:A 0
14 *143:A *20:12 0.000279787
15 *143:A *20:21 0.000597357
*RES
1 *133:X *20:12 7.96 
2 *20:12 *134:B 1.6 
3 *20:12 *20:21 15.215 
4 *20:21 *144:A 9.555 
5 *20:21 *136:A 5.49 
*END
