*SPEF "ieee 1481-1999"
*DESIGN "mult8_2bits_2op_e2468"
*DATE "12:10:11 Wednesday September 17, 2025"
*VENDOR "The OpenROAD Project"
*PROGRAM "OpenROAD"
*VERSION "edf00dff99f6c40d67a30c0e22a8191c5d2ed9d6"
*DESIGN_FLOW "NAME_SCOPE LOCAL" "PIN_CAP NONE"
*DIVIDER /
*DELIMITER :
*BUS_DELIMITER []
*T_UNIT 1 NS
*C_UNIT 1 PF
*R_UNIT 1 OHM
*L_UNIT 1 HENRY

*NAME_MAP
*1 A[0]
*2 A[1]
*3 A[2]
*4 A[3]
*5 A[4]
*6 A[5]
*7 A[6]
*8 A[7]
*9 B[0]
*10 B[1]
*11 B[2]
*12 B[3]
*13 B[4]
*14 B[5]
*15 B[6]
*16 B[7]
*17 net53
*18 P[10]
*19 P[11]
*20 P[12]
*21 P[13]
*22 P[14]
*23 P[15]
*24 P[1]
*25 P[2]
*26 P[3]
*27 P[4]
*28 P[5]
*29 P[6]
*30 P[7]
*31 P[8]
*32 P[9]
*35 _000_
*36 _001_
*37 _002_
*38 _003_
*39 _004_
*40 _005_
*41 _006_
*42 _007_
*43 _008_
*44 _009_
*45 _010_
*46 _011_
*47 _012_
*48 _013_
*49 _014_
*50 _015_
*51 _016_
*52 _017_
*53 _018_
*54 _019_
*55 _020_
*56 _021_
*57 _022_
*58 _023_
*59 _024_
*60 _025_
*61 _026_
*62 _027_
*63 _028_
*64 _029_
*65 _030_
*66 _031_
*67 _032_
*68 _033_
*69 _034_
*70 _035_
*71 _036_
*72 _037_
*73 _038_
*74 _039_
*75 _040_
*76 _041_
*77 _042_
*78 _043_
*79 _044_
*80 _045_
*81 _046_
*82 _047_
*83 _048_
*84 _049_
*85 _050_
*86 _051_
*87 _052_
*88 _053_
*89 _054_
*90 _055_
*91 _056_
*92 _057_
*93 _058_
*94 _059_
*95 _060_
*96 _061_
*97 _062_
*98 _063_
*99 _064_
*100 _065_
*101 _066_
*102 _067_
*103 _068_
*104 _069_
*105 _070_
*106 _071_
*107 _072_
*108 _073_
*109 _074_
*110 _075_
*111 _076_
*112 _077_
*113 _078_
*114 _079_
*115 _080_
*116 _081_
*117 _082_
*118 _083_
*119 _084_
*120 _085_
*121 _086_
*122 _087_
*123 _088_
*124 _089_
*125 _090_
*126 _091_
*127 _092_
*128 _093_
*129 _094_
*130 _095_
*131 _096_
*132 _097_
*133 _098_
*134 _099_
*135 _100_
*136 _101_
*137 _102_
*138 _103_
*139 _104_
*140 _105_
*141 _106_
*142 _107_
*143 _108_
*144 _109_
*145 _110_
*146 _111_
*147 _112_
*148 _113_
*149 _114_
*150 _115_
*151 _116_
*152 _117_
*153 _118_
*154 _119_
*155 _120_
*156 _121_
*157 _122_
*158 _123_
*159 _124_
*160 _125_
*161 _126_
*162 _127_
*163 _128_
*164 _129_
*165 _130_
*166 _131_
*167 _132_
*168 _133_
*169 _134_
*170 _135_
*171 _136_
*172 _137_
*173 _138_
*174 _139_
*175 _140_
*176 _141_
*177 _142_
*178 _143_
*179 _144_
*180 _145_
*181 _146_
*182 _147_
*183 _148_
*184 _149_
*185 _150_
*186 _151_
*187 _152_
*188 _153_
*189 _154_
*190 _155_
*191 _156_
*192 _157_
*193 _158_
*194 _159_
*195 _160_
*196 _161_
*197 _162_
*198 _163_
*199 _164_
*200 _165_
*201 _166_
*202 _167_
*203 _168_
*204 _169_
*205 _170_
*206 _171_
*207 _172_
*208 _173_
*209 _174_
*210 _175_
*211 _176_
*212 _177_
*213 _178_
*214 _179_
*215 _180_
*216 _181_
*217 _182_
*218 _183_
*219 _184_
*220 _185_
*221 _186_
*222 _187_
*223 _188_
*224 _189_
*225 _190_
*226 _191_
*227 _192_
*228 _193_
*229 _194_
*230 _195_
*231 _196_
*232 _197_
*233 _198_
*234 _199_
*235 _200_
*236 _201_
*237 _202_
*238 _203_
*239 _204_
*240 _205_
*241 _206_
*242 _207_
*243 _208_
*244 _209_
*245 _210_
*246 _211_
*247 _212_
*248 _213_
*249 _214_
*250 _215_
*251 _216_
*252 _217_
*253 _218_
*254 _219_
*255 _220_
*256 _221_
*257 _222_
*258 _223_
*259 _224_
*260 _225_
*261 _226_
*262 _227_
*263 _228_
*264 _229_
*265 _230_
*266 _231_
*267 _232_
*268 _233_
*269 _234_
*270 _235_
*271 _236_
*272 _237_
*273 _238_
*274 _239_
*275 _240_
*276 _241_
*277 _242_
*278 _243_
*279 _244_
*280 _245_
*281 _246_
*282 _247_
*283 _248_
*284 _249_
*285 _250_
*286 _251_
*287 _252_
*288 _253_
*289 _254_
*290 _255_
*291 _256_
*292 _257_
*293 _258_
*294 _259_
*295 _260_
*296 _261_
*297 _262_
*298 _263_
*299 _264_
*300 _265_
*301 _266_
*302 _267_
*303 _268_
*304 _269_
*305 _270_
*306 _271_
*307 _272_
*308 _273_
*309 _274_
*310 _275_
*311 net1
*312 net10
*313 net11
*314 net12
*315 net13
*316 net14
*317 net15
*318 net16
*319 net17
*320 net18
*321 net19
*322 net2
*323 net20
*324 net21
*325 net22
*326 net23
*327 net24
*328 net25
*329 net26
*330 net27
*331 net28
*332 net29
*333 net3
*334 net30
*335 net31
*336 net32
*337 net33
*338 net34
*339 net35
*340 net36
*341 net37
*342 net38
*343 net39
*344 net4
*345 net40
*346 net41
*347 net42
*348 net43
*349 net44
*350 net45
*351 net46
*352 net47
*353 net48
*354 net49
*355 net5
*356 net50
*357 net51
*358 net52
*359 net54
*360 net55
*361 net56
*362 net57
*363 net58
*364 net59
*365 net6
*366 net60
*367 net61
*368 net62
*369 net63
*370 net64
*371 net65
*372 net66
*373 net67
*374 net68
*375 net69
*376 net7
*377 net70
*378 net71
*379 net72
*380 net73
*381 net74
*382 net75
*383 net76
*384 net77
*385 net8
*386 net81
*387 net9
*388 FILLER_0_109
*389 FILLER_0_113
*390 FILLER_0_134
*391 FILLER_0_139
*392 FILLER_0_141
*393 FILLER_0_147
*394 FILLER_0_15
*395 FILLER_0_155
*396 FILLER_0_161
*397 FILLER_0_167
*398 FILLER_0_182
*399 FILLER_0_193
*400 FILLER_0_206
*401 FILLER_0_211
*402 FILLER_0_223
*403 FILLER_0_225
*404 FILLER_0_237
*405 FILLER_0_249
*406 FILLER_0_253
*407 FILLER_0_265
*408 FILLER_0_27
*409 FILLER_0_277
*410 FILLER_0_281
*411 FILLER_0_289
*412 FILLER_0_29
*413 FILLER_0_294
*414 FILLER_0_3
*415 FILLER_0_306
*416 FILLER_0_309
*417 FILLER_0_321
*418 FILLER_0_333
*419 FILLER_0_337
*420 FILLER_0_349
*421 FILLER_0_361
*422 FILLER_0_365
*423 FILLER_0_377
*424 FILLER_0_389
*425 FILLER_0_393
*426 FILLER_0_405
*427 FILLER_0_41
*428 FILLER_0_53
*429 FILLER_0_57
*430 FILLER_0_69
*431 FILLER_0_81
*432 FILLER_0_85
*433 FILLER_0_97
*434 FILLER_10_109
*435 FILLER_10_121
*436 FILLER_10_133
*437 FILLER_10_139
*438 FILLER_10_141
*439 FILLER_10_15
*440 FILLER_10_153
*441 FILLER_10_165
*442 FILLER_10_177
*443 FILLER_10_189
*444 FILLER_10_195
*445 FILLER_10_197
*446 FILLER_10_209
*447 FILLER_10_226
*448 FILLER_10_238
*449 FILLER_10_250
*450 FILLER_10_253
*451 FILLER_10_265
*452 FILLER_10_269
*453 FILLER_10_27
*454 FILLER_10_273
*455 FILLER_10_285
*456 FILLER_10_29
*457 FILLER_10_297
*458 FILLER_10_3
*459 FILLER_10_305
*460 FILLER_10_309
*461 FILLER_10_321
*462 FILLER_10_333
*463 FILLER_10_345
*464 FILLER_10_357
*465 FILLER_10_363
*466 FILLER_10_365
*467 FILLER_10_377
*468 FILLER_10_389
*469 FILLER_10_401
*470 FILLER_10_41
*471 FILLER_10_53
*472 FILLER_10_65
*473 FILLER_10_77
*474 FILLER_10_83
*475 FILLER_10_85
*476 FILLER_10_97
*477 FILLER_11_105
*478 FILLER_11_111
*479 FILLER_11_113
*480 FILLER_11_125
*481 FILLER_11_130
*482 FILLER_11_136
*483 FILLER_11_148
*484 FILLER_11_15
*485 FILLER_11_160
*486 FILLER_11_178
*487 FILLER_11_190
*488 FILLER_11_198
*489 FILLER_11_216
*490 FILLER_11_225
*491 FILLER_11_237
*492 FILLER_11_249
*493 FILLER_11_261
*494 FILLER_11_27
*495 FILLER_11_276
*496 FILLER_11_281
*497 FILLER_11_293
*498 FILLER_11_3
*499 FILLER_11_305
*500 FILLER_11_317
*501 FILLER_11_329
*502 FILLER_11_335
*503 FILLER_11_337
*504 FILLER_11_349
*505 FILLER_11_361
*506 FILLER_11_373
*507 FILLER_11_385
*508 FILLER_11_39
*509 FILLER_11_391
*510 FILLER_11_393
*511 FILLER_11_405
*512 FILLER_11_51
*513 FILLER_11_55
*514 FILLER_11_57
*515 FILLER_11_69
*516 FILLER_11_81
*517 FILLER_11_93
*518 FILLER_12_109
*519 FILLER_12_137
*520 FILLER_12_141
*521 FILLER_12_15
*522 FILLER_12_153
*523 FILLER_12_192
*524 FILLER_12_197
*525 FILLER_12_209
*526 FILLER_12_221
*527 FILLER_12_238
*528 FILLER_12_250
*529 FILLER_12_253
*530 FILLER_12_265
*531 FILLER_12_27
*532 FILLER_12_271
*533 FILLER_12_277
*534 FILLER_12_289
*535 FILLER_12_29
*536 FILLER_12_3
*537 FILLER_12_301
*538 FILLER_12_307
*539 FILLER_12_309
*540 FILLER_12_321
*541 FILLER_12_333
*542 FILLER_12_345
*543 FILLER_12_357
*544 FILLER_12_363
*545 FILLER_12_365
*546 FILLER_12_377
*547 FILLER_12_389
*548 FILLER_12_401
*549 FILLER_12_41
*550 FILLER_12_53
*551 FILLER_12_65
*552 FILLER_12_77
*553 FILLER_12_83
*554 FILLER_12_85
*555 FILLER_12_97
*556 FILLER_13_105
*557 FILLER_13_111
*558 FILLER_13_113
*559 FILLER_13_146
*560 FILLER_13_15
*561 FILLER_13_158
*562 FILLER_13_166
*563 FILLER_13_177
*564 FILLER_13_183
*565 FILLER_13_196
*566 FILLER_13_208
*567 FILLER_13_220
*568 FILLER_13_238
*569 FILLER_13_250
*570 FILLER_13_262
*571 FILLER_13_27
*572 FILLER_13_274
*573 FILLER_13_281
*574 FILLER_13_293
*575 FILLER_13_3
*576 FILLER_13_305
*577 FILLER_13_317
*578 FILLER_13_329
*579 FILLER_13_335
*580 FILLER_13_337
*581 FILLER_13_349
*582 FILLER_13_361
*583 FILLER_13_373
*584 FILLER_13_385
*585 FILLER_13_39
*586 FILLER_13_391
*587 FILLER_13_393
*588 FILLER_13_405
*589 FILLER_13_51
*590 FILLER_13_55
*591 FILLER_13_57
*592 FILLER_13_69
*593 FILLER_13_81
*594 FILLER_13_93
*595 FILLER_14_109
*596 FILLER_14_118
*597 FILLER_14_126
*598 FILLER_14_137
*599 FILLER_14_141
*600 FILLER_14_15
*601 FILLER_14_153
*602 FILLER_14_165
*603 FILLER_14_182
*604 FILLER_14_197
*605 FILLER_14_205
*606 FILLER_14_214
*607 FILLER_14_226
*608 FILLER_14_235
*609 FILLER_14_253
*610 FILLER_14_265
*611 FILLER_14_27
*612 FILLER_14_271
*613 FILLER_14_283
*614 FILLER_14_29
*615 FILLER_14_295
*616 FILLER_14_3
*617 FILLER_14_307
*618 FILLER_14_309
*619 FILLER_14_321
*620 FILLER_14_333
*621 FILLER_14_345
*622 FILLER_14_357
*623 FILLER_14_363
*624 FILLER_14_365
*625 FILLER_14_377
*626 FILLER_14_389
*627 FILLER_14_401
*628 FILLER_14_41
*629 FILLER_14_53
*630 FILLER_14_65
*631 FILLER_14_77
*632 FILLER_14_83
*633 FILLER_14_85
*634 FILLER_14_97
*635 FILLER_15_105
*636 FILLER_15_111
*637 FILLER_15_113
*638 FILLER_15_126
*639 FILLER_15_138
*640 FILLER_15_15
*641 FILLER_15_150
*642 FILLER_15_155
*643 FILLER_15_167
*644 FILLER_15_169
*645 FILLER_15_181
*646 FILLER_15_219
*647 FILLER_15_223
*648 FILLER_15_225
*649 FILLER_15_237
*650 FILLER_15_249
*651 FILLER_15_261
*652 FILLER_15_27
*653 FILLER_15_276
*654 FILLER_15_281
*655 FILLER_15_293
*656 FILLER_15_3
*657 FILLER_15_305
*658 FILLER_15_317
*659 FILLER_15_332
*660 FILLER_15_337
*661 FILLER_15_349
*662 FILLER_15_361
*663 FILLER_15_373
*664 FILLER_15_385
*665 FILLER_15_39
*666 FILLER_15_391
*667 FILLER_15_393
*668 FILLER_15_405
*669 FILLER_15_51
*670 FILLER_15_55
*671 FILLER_15_57
*672 FILLER_15_69
*673 FILLER_15_81
*674 FILLER_15_93
*675 FILLER_16_105
*676 FILLER_16_112
*677 FILLER_16_124
*678 FILLER_16_136
*679 FILLER_16_141
*680 FILLER_16_15
*681 FILLER_16_153
*682 FILLER_16_165
*683 FILLER_16_177
*684 FILLER_16_182
*685 FILLER_16_194
*686 FILLER_16_197
*687 FILLER_16_205
*688 FILLER_16_216
*689 FILLER_16_228
*690 FILLER_16_236
*691 FILLER_16_253
*692 FILLER_16_265
*693 FILLER_16_27
*694 FILLER_16_277
*695 FILLER_16_289
*696 FILLER_16_29
*697 FILLER_16_297
*698 FILLER_16_3
*699 FILLER_16_309
*700 FILLER_16_316
*701 FILLER_16_322
*702 FILLER_16_329
*703 FILLER_16_341
*704 FILLER_16_353
*705 FILLER_16_361
*706 FILLER_16_365
*707 FILLER_16_377
*708 FILLER_16_389
*709 FILLER_16_401
*710 FILLER_16_41
*711 FILLER_16_53
*712 FILLER_16_65
*713 FILLER_16_77
*714 FILLER_16_83
*715 FILLER_16_85
*716 FILLER_16_97
*717 FILLER_17_105
*718 FILLER_17_111
*719 FILLER_17_113
*720 FILLER_17_125
*721 FILLER_17_137
*722 FILLER_17_149
*723 FILLER_17_15
*724 FILLER_17_161
*725 FILLER_17_167
*726 FILLER_17_169
*727 FILLER_17_186
*728 FILLER_17_198
*729 FILLER_17_210
*730 FILLER_17_222
*731 FILLER_17_225
*732 FILLER_17_237
*733 FILLER_17_249
*734 FILLER_17_261
*735 FILLER_17_27
*736 FILLER_17_273
*737 FILLER_17_279
*738 FILLER_17_281
*739 FILLER_17_289
*740 FILLER_17_3
*741 FILLER_17_301
*742 FILLER_17_313
*743 FILLER_17_325
*744 FILLER_17_333
*745 FILLER_17_337
*746 FILLER_17_349
*747 FILLER_17_361
*748 FILLER_17_373
*749 FILLER_17_385
*750 FILLER_17_39
*751 FILLER_17_391
*752 FILLER_17_393
*753 FILLER_17_405
*754 FILLER_17_51
*755 FILLER_17_55
*756 FILLER_17_57
*757 FILLER_17_69
*758 FILLER_17_81
*759 FILLER_17_93
*760 FILLER_18_109
*761 FILLER_18_121
*762 FILLER_18_133
*763 FILLER_18_139
*764 FILLER_18_145
*765 FILLER_18_15
*766 FILLER_18_157
*767 FILLER_18_169
*768 FILLER_18_185
*769 FILLER_18_193
*770 FILLER_18_197
*771 FILLER_18_209
*772 FILLER_18_221
*773 FILLER_18_233
*774 FILLER_18_241
*775 FILLER_18_256
*776 FILLER_18_268
*777 FILLER_18_27
*778 FILLER_18_280
*779 FILLER_18_286
*780 FILLER_18_29
*781 FILLER_18_290
*782 FILLER_18_3
*783 FILLER_18_302
*784 FILLER_18_309
*785 FILLER_18_319
*786 FILLER_18_331
*787 FILLER_18_343
*788 FILLER_18_355
*789 FILLER_18_363
*790 FILLER_18_365
*791 FILLER_18_377
*792 FILLER_18_389
*793 FILLER_18_401
*794 FILLER_18_41
*795 FILLER_18_53
*796 FILLER_18_65
*797 FILLER_18_77
*798 FILLER_18_83
*799 FILLER_18_85
*800 FILLER_18_97
*801 FILLER_19_113
*802 FILLER_19_125
*803 FILLER_19_129
*804 FILLER_19_139
*805 FILLER_19_145
*806 FILLER_19_15
*807 FILLER_19_152
*808 FILLER_19_164
*809 FILLER_19_169
*810 FILLER_19_190
*811 FILLER_19_202
*812 FILLER_19_208
*813 FILLER_19_220
*814 FILLER_19_225
*815 FILLER_19_237
*816 FILLER_19_249
*817 FILLER_19_261
*818 FILLER_19_27
*819 FILLER_19_273
*820 FILLER_19_279
*821 FILLER_19_281
*822 FILLER_19_293
*823 FILLER_19_3
*824 FILLER_19_305
*825 FILLER_19_314
*826 FILLER_19_327
*827 FILLER_19_335
*828 FILLER_19_344
*829 FILLER_19_356
*830 FILLER_19_368
*831 FILLER_19_380
*832 FILLER_19_39
*833 FILLER_19_393
*834 FILLER_19_405
*835 FILLER_19_51
*836 FILLER_19_55
*837 FILLER_19_57
*838 FILLER_19_69
*839 FILLER_19_81
*840 FILLER_19_93
*841 FILLER_1_105
*842 FILLER_1_111
*843 FILLER_1_113
*844 FILLER_1_125
*845 FILLER_1_137
*846 FILLER_1_149
*847 FILLER_1_15
*848 FILLER_1_165
*849 FILLER_1_169
*850 FILLER_1_176
*851 FILLER_1_188
*852 FILLER_1_200
*853 FILLER_1_212
*854 FILLER_1_225
*855 FILLER_1_237
*856 FILLER_1_249
*857 FILLER_1_261
*858 FILLER_1_27
*859 FILLER_1_273
*860 FILLER_1_279
*861 FILLER_1_281
*862 FILLER_1_293
*863 FILLER_1_3
*864 FILLER_1_305
*865 FILLER_1_317
*866 FILLER_1_329
*867 FILLER_1_335
*868 FILLER_1_337
*869 FILLER_1_349
*870 FILLER_1_361
*871 FILLER_1_373
*872 FILLER_1_385
*873 FILLER_1_39
*874 FILLER_1_391
*875 FILLER_1_393
*876 FILLER_1_405
*877 FILLER_1_51
*878 FILLER_1_55
*879 FILLER_1_57
*880 FILLER_1_69
*881 FILLER_1_81
*882 FILLER_1_93
*883 FILLER_20_118
*884 FILLER_20_130
*885 FILLER_20_138
*886 FILLER_20_141
*887 FILLER_20_15
*888 FILLER_20_153
*889 FILLER_20_165
*890 FILLER_20_178
*891 FILLER_20_186
*892 FILLER_20_194
*893 FILLER_20_197
*894 FILLER_20_205
*895 FILLER_20_213
*896 FILLER_20_225
*897 FILLER_20_237
*898 FILLER_20_249
*899 FILLER_20_253
*900 FILLER_20_265
*901 FILLER_20_27
*902 FILLER_20_278
*903 FILLER_20_286
*904 FILLER_20_29
*905 FILLER_20_296
*906 FILLER_20_3
*907 FILLER_20_309
*908 FILLER_20_317
*909 FILLER_20_325
*910 FILLER_20_337
*911 FILLER_20_349
*912 FILLER_20_361
*913 FILLER_20_365
*914 FILLER_20_377
*915 FILLER_20_389
*916 FILLER_20_397
*917 FILLER_20_41
*918 FILLER_20_53
*919 FILLER_20_65
*920 FILLER_20_77
*921 FILLER_20_83
*922 FILLER_20_85
*923 FILLER_20_97
*924 FILLER_21_109
*925 FILLER_21_113
*926 FILLER_21_125
*927 FILLER_21_137
*928 FILLER_21_15
*929 FILLER_21_155
*930 FILLER_21_167
*931 FILLER_21_169
*932 FILLER_21_181
*933 FILLER_21_193
*934 FILLER_21_205
*935 FILLER_21_213
*936 FILLER_21_219
*937 FILLER_21_223
*938 FILLER_21_225
*939 FILLER_21_231
*940 FILLER_21_236
*941 FILLER_21_248
*942 FILLER_21_260
*943 FILLER_21_27
*944 FILLER_21_272
*945 FILLER_21_276
*946 FILLER_21_281
*947 FILLER_21_290
*948 FILLER_21_3
*949 FILLER_21_302
*950 FILLER_21_314
*951 FILLER_21_326
*952 FILLER_21_334
*953 FILLER_21_337
*954 FILLER_21_349
*955 FILLER_21_361
*956 FILLER_21_373
*957 FILLER_21_385
*958 FILLER_21_39
*959 FILLER_21_391
*960 FILLER_21_393
*961 FILLER_21_405
*962 FILLER_21_51
*963 FILLER_21_55
*964 FILLER_21_57
*965 FILLER_21_69
*966 FILLER_21_81
*967 FILLER_21_93
*968 FILLER_22_103
*969 FILLER_22_109
*970 FILLER_22_120
*971 FILLER_22_132
*972 FILLER_22_141
*973 FILLER_22_15
*974 FILLER_22_153
*975 FILLER_22_165
*976 FILLER_22_177
*977 FILLER_22_189
*978 FILLER_22_195
*979 FILLER_22_197
*980 FILLER_22_209
*981 FILLER_22_217
*982 FILLER_22_229
*983 FILLER_22_253
*984 FILLER_22_265
*985 FILLER_22_27
*986 FILLER_22_277
*987 FILLER_22_289
*988 FILLER_22_29
*989 FILLER_22_3
*990 FILLER_22_301
*991 FILLER_22_307
*992 FILLER_22_309
*993 FILLER_22_321
*994 FILLER_22_333
*995 FILLER_22_345
*996 FILLER_22_357
*997 FILLER_22_363
*998 FILLER_22_365
*999 FILLER_22_377
*1000 FILLER_22_389
*1001 FILLER_22_401
*1002 FILLER_22_41
*1003 FILLER_22_53
*1004 FILLER_22_65
*1005 FILLER_22_77
*1006 FILLER_22_83
*1007 FILLER_22_85
*1008 FILLER_22_97
*1009 FILLER_23_105
*1010 FILLER_23_123
*1011 FILLER_23_135
*1012 FILLER_23_147
*1013 FILLER_23_15
*1014 FILLER_23_151
*1015 FILLER_23_163
*1016 FILLER_23_167
*1017 FILLER_23_169
*1018 FILLER_23_181
*1019 FILLER_23_193
*1020 FILLER_23_205
*1021 FILLER_23_217
*1022 FILLER_23_223
*1023 FILLER_23_225
*1024 FILLER_23_237
*1025 FILLER_23_244
*1026 FILLER_23_256
*1027 FILLER_23_268
*1028 FILLER_23_27
*1029 FILLER_23_281
*1030 FILLER_23_293
*1031 FILLER_23_3
*1032 FILLER_23_305
*1033 FILLER_23_317
*1034 FILLER_23_329
*1035 FILLER_23_335
*1036 FILLER_23_337
*1037 FILLER_23_349
*1038 FILLER_23_361
*1039 FILLER_23_373
*1040 FILLER_23_385
*1041 FILLER_23_39
*1042 FILLER_23_391
*1043 FILLER_23_393
*1044 FILLER_23_405
*1045 FILLER_23_51
*1046 FILLER_23_55
*1047 FILLER_23_57
*1048 FILLER_23_69
*1049 FILLER_23_81
*1050 FILLER_23_93
*1051 FILLER_24_114
*1052 FILLER_24_126
*1053 FILLER_24_138
*1054 FILLER_24_141
*1055 FILLER_24_15
*1056 FILLER_24_158
*1057 FILLER_24_170
*1058 FILLER_24_182
*1059 FILLER_24_194
*1060 FILLER_24_214
*1061 FILLER_24_226
*1062 FILLER_24_234
*1063 FILLER_24_244
*1064 FILLER_24_253
*1065 FILLER_24_265
*1066 FILLER_24_27
*1067 FILLER_24_277
*1068 FILLER_24_289
*1069 FILLER_24_29
*1070 FILLER_24_3
*1071 FILLER_24_301
*1072 FILLER_24_307
*1073 FILLER_24_309
*1074 FILLER_24_321
*1075 FILLER_24_333
*1076 FILLER_24_345
*1077 FILLER_24_357
*1078 FILLER_24_363
*1079 FILLER_24_365
*1080 FILLER_24_377
*1081 FILLER_24_389
*1082 FILLER_24_401
*1083 FILLER_24_41
*1084 FILLER_24_53
*1085 FILLER_24_65
*1086 FILLER_24_77
*1087 FILLER_24_83
*1088 FILLER_24_85
*1089 FILLER_24_97
*1090 FILLER_25_105
*1091 FILLER_25_119
*1092 FILLER_25_131
*1093 FILLER_25_143
*1094 FILLER_25_15
*1095 FILLER_25_155
*1096 FILLER_25_159
*1097 FILLER_25_167
*1098 FILLER_25_169
*1099 FILLER_25_181
*1100 FILLER_25_189
*1101 FILLER_25_213
*1102 FILLER_25_221
*1103 FILLER_25_225
*1104 FILLER_25_237
*1105 FILLER_25_249
*1106 FILLER_25_261
*1107 FILLER_25_27
*1108 FILLER_25_273
*1109 FILLER_25_279
*1110 FILLER_25_286
*1111 FILLER_25_298
*1112 FILLER_25_3
*1113 FILLER_25_310
*1114 FILLER_25_322
*1115 FILLER_25_334
*1116 FILLER_25_337
*1117 FILLER_25_349
*1118 FILLER_25_361
*1119 FILLER_25_373
*1120 FILLER_25_385
*1121 FILLER_25_39
*1122 FILLER_25_391
*1123 FILLER_25_393
*1124 FILLER_25_405
*1125 FILLER_25_51
*1126 FILLER_25_55
*1127 FILLER_25_57
*1128 FILLER_25_69
*1129 FILLER_25_81
*1130 FILLER_25_93
*1131 FILLER_26_109
*1132 FILLER_26_121
*1133 FILLER_26_144
*1134 FILLER_26_15
*1135 FILLER_26_171
*1136 FILLER_26_183
*1137 FILLER_26_195
*1138 FILLER_26_200
*1139 FILLER_26_204
*1140 FILLER_26_216
*1141 FILLER_26_228
*1142 FILLER_26_236
*1143 FILLER_26_248
*1144 FILLER_26_253
*1145 FILLER_26_265
*1146 FILLER_26_27
*1147 FILLER_26_29
*1148 FILLER_26_291
*1149 FILLER_26_3
*1150 FILLER_26_306
*1151 FILLER_26_312
*1152 FILLER_26_324
*1153 FILLER_26_336
*1154 FILLER_26_348
*1155 FILLER_26_360
*1156 FILLER_26_365
*1157 FILLER_26_377
*1158 FILLER_26_389
*1159 FILLER_26_401
*1160 FILLER_26_41
*1161 FILLER_26_53
*1162 FILLER_26_65
*1163 FILLER_26_77
*1164 FILLER_26_83
*1165 FILLER_26_85
*1166 FILLER_26_97
*1167 FILLER_27_105
*1168 FILLER_27_111
*1169 FILLER_27_113
*1170 FILLER_27_125
*1171 FILLER_27_137
*1172 FILLER_27_149
*1173 FILLER_27_15
*1174 FILLER_27_161
*1175 FILLER_27_167
*1176 FILLER_27_169
*1177 FILLER_27_181
*1178 FILLER_27_193
*1179 FILLER_27_201
*1180 FILLER_27_211
*1181 FILLER_27_223
*1182 FILLER_27_233
*1183 FILLER_27_245
*1184 FILLER_27_257
*1185 FILLER_27_269
*1186 FILLER_27_27
*1187 FILLER_27_277
*1188 FILLER_27_281
*1189 FILLER_27_293
*1190 FILLER_27_3
*1191 FILLER_27_305
*1192 FILLER_27_322
*1193 FILLER_27_334
*1194 FILLER_27_337
*1195 FILLER_27_349
*1196 FILLER_27_361
*1197 FILLER_27_373
*1198 FILLER_27_385
*1199 FILLER_27_39
*1200 FILLER_27_391
*1201 FILLER_27_393
*1202 FILLER_27_51
*1203 FILLER_27_55
*1204 FILLER_27_57
*1205 FILLER_27_69
*1206 FILLER_27_81
*1207 FILLER_27_93
*1208 FILLER_28_119
*1209 FILLER_28_131
*1210 FILLER_28_139
*1211 FILLER_28_141
*1212 FILLER_28_15
*1213 FILLER_28_153
*1214 FILLER_28_165
*1215 FILLER_28_177
*1216 FILLER_28_189
*1217 FILLER_28_195
*1218 FILLER_28_197
*1219 FILLER_28_209
*1220 FILLER_28_220
*1221 FILLER_28_232
*1222 FILLER_28_244
*1223 FILLER_28_253
*1224 FILLER_28_265
*1225 FILLER_28_27
*1226 FILLER_28_277
*1227 FILLER_28_289
*1228 FILLER_28_29
*1229 FILLER_28_3
*1230 FILLER_28_301
*1231 FILLER_28_307
*1232 FILLER_28_309
*1233 FILLER_28_318
*1234 FILLER_28_330
*1235 FILLER_28_342
*1236 FILLER_28_354
*1237 FILLER_28_362
*1238 FILLER_28_365
*1239 FILLER_28_377
*1240 FILLER_28_389
*1241 FILLER_28_401
*1242 FILLER_28_41
*1243 FILLER_28_53
*1244 FILLER_28_65
*1245 FILLER_28_77
*1246 FILLER_28_83
*1247 FILLER_28_85
*1248 FILLER_28_97
*1249 FILLER_29_101
*1250 FILLER_29_113
*1251 FILLER_29_125
*1252 FILLER_29_137
*1253 FILLER_29_144
*1254 FILLER_29_15
*1255 FILLER_29_156
*1256 FILLER_29_160
*1257 FILLER_29_164
*1258 FILLER_29_169
*1259 FILLER_29_181
*1260 FILLER_29_193
*1261 FILLER_29_205
*1262 FILLER_29_217
*1263 FILLER_29_223
*1264 FILLER_29_225
*1265 FILLER_29_237
*1266 FILLER_29_249
*1267 FILLER_29_257
*1268 FILLER_29_265
*1269 FILLER_29_27
*1270 FILLER_29_277
*1271 FILLER_29_281
*1272 FILLER_29_293
*1273 FILLER_29_3
*1274 FILLER_29_305
*1275 FILLER_29_317
*1276 FILLER_29_329
*1277 FILLER_29_335
*1278 FILLER_29_337
*1279 FILLER_29_349
*1280 FILLER_29_361
*1281 FILLER_29_373
*1282 FILLER_29_385
*1283 FILLER_29_39
*1284 FILLER_29_391
*1285 FILLER_29_393
*1286 FILLER_29_405
*1287 FILLER_29_51
*1288 FILLER_29_55
*1289 FILLER_29_57
*1290 FILLER_29_69
*1291 FILLER_29_81
*1292 FILLER_29_93
*1293 FILLER_2_109
*1294 FILLER_2_121
*1295 FILLER_2_133
*1296 FILLER_2_139
*1297 FILLER_2_141
*1298 FILLER_2_149
*1299 FILLER_2_159
*1300 FILLER_2_18
*1301 FILLER_2_187
*1302 FILLER_2_195
*1303 FILLER_2_197
*1304 FILLER_2_209
*1305 FILLER_2_221
*1306 FILLER_2_233
*1307 FILLER_2_245
*1308 FILLER_2_251
*1309 FILLER_2_253
*1310 FILLER_2_26
*1311 FILLER_2_265
*1312 FILLER_2_277
*1313 FILLER_2_289
*1314 FILLER_2_29
*1315 FILLER_2_301
*1316 FILLER_2_307
*1317 FILLER_2_309
*1318 FILLER_2_321
*1319 FILLER_2_333
*1320 FILLER_2_345
*1321 FILLER_2_357
*1322 FILLER_2_363
*1323 FILLER_2_365
*1324 FILLER_2_377
*1325 FILLER_2_389
*1326 FILLER_2_401
*1327 FILLER_2_41
*1328 FILLER_2_53
*1329 FILLER_2_6
*1330 FILLER_2_65
*1331 FILLER_2_77
*1332 FILLER_2_83
*1333 FILLER_2_85
*1334 FILLER_2_97
*1335 FILLER_30_114
*1336 FILLER_30_126
*1337 FILLER_30_138
*1338 FILLER_30_141
*1339 FILLER_30_15
*1340 FILLER_30_153
*1341 FILLER_30_182
*1342 FILLER_30_194
*1343 FILLER_30_197
*1344 FILLER_30_202
*1345 FILLER_30_213
*1346 FILLER_30_225
*1347 FILLER_30_233
*1348 FILLER_30_241
*1349 FILLER_30_249
*1350 FILLER_30_253
*1351 FILLER_30_260
*1352 FILLER_30_27
*1353 FILLER_30_272
*1354 FILLER_30_284
*1355 FILLER_30_29
*1356 FILLER_30_296
*1357 FILLER_30_3
*1358 FILLER_30_309
*1359 FILLER_30_321
*1360 FILLER_30_333
*1361 FILLER_30_345
*1362 FILLER_30_357
*1363 FILLER_30_363
*1364 FILLER_30_365
*1365 FILLER_30_377
*1366 FILLER_30_389
*1367 FILLER_30_401
*1368 FILLER_30_41
*1369 FILLER_30_53
*1370 FILLER_30_65
*1371 FILLER_30_77
*1372 FILLER_30_83
*1373 FILLER_30_85
*1374 FILLER_30_97
*1375 FILLER_31_105
*1376 FILLER_31_110
*1377 FILLER_31_113
*1378 FILLER_31_125
*1379 FILLER_31_137
*1380 FILLER_31_149
*1381 FILLER_31_15
*1382 FILLER_31_166
*1383 FILLER_31_174
*1384 FILLER_31_182
*1385 FILLER_31_188
*1386 FILLER_31_200
*1387 FILLER_31_211
*1388 FILLER_31_223
*1389 FILLER_31_225
*1390 FILLER_31_237
*1391 FILLER_31_249
*1392 FILLER_31_253
*1393 FILLER_31_257
*1394 FILLER_31_261
*1395 FILLER_31_27
*1396 FILLER_31_273
*1397 FILLER_31_279
*1398 FILLER_31_281
*1399 FILLER_31_293
*1400 FILLER_31_3
*1401 FILLER_31_305
*1402 FILLER_31_317
*1403 FILLER_31_329
*1404 FILLER_31_335
*1405 FILLER_31_337
*1406 FILLER_31_349
*1407 FILLER_31_361
*1408 FILLER_31_373
*1409 FILLER_31_385
*1410 FILLER_31_39
*1411 FILLER_31_391
*1412 FILLER_31_393
*1413 FILLER_31_405
*1414 FILLER_31_51
*1415 FILLER_31_55
*1416 FILLER_31_57
*1417 FILLER_31_69
*1418 FILLER_31_81
*1419 FILLER_31_93
*1420 FILLER_32_109
*1421 FILLER_32_122
*1422 FILLER_32_134
*1423 FILLER_32_141
*1424 FILLER_32_15
*1425 FILLER_32_153
*1426 FILLER_32_161
*1427 FILLER_32_168
*1428 FILLER_32_180
*1429 FILLER_32_192
*1430 FILLER_32_197
*1431 FILLER_32_209
*1432 FILLER_32_221
*1433 FILLER_32_233
*1434 FILLER_32_245
*1435 FILLER_32_251
*1436 FILLER_32_263
*1437 FILLER_32_27
*1438 FILLER_32_275
*1439 FILLER_32_287
*1440 FILLER_32_29
*1441 FILLER_32_299
*1442 FILLER_32_3
*1443 FILLER_32_307
*1444 FILLER_32_309
*1445 FILLER_32_321
*1446 FILLER_32_333
*1447 FILLER_32_345
*1448 FILLER_32_357
*1449 FILLER_32_363
*1450 FILLER_32_365
*1451 FILLER_32_377
*1452 FILLER_32_389
*1453 FILLER_32_401
*1454 FILLER_32_41
*1455 FILLER_32_53
*1456 FILLER_32_65
*1457 FILLER_32_77
*1458 FILLER_32_83
*1459 FILLER_32_85
*1460 FILLER_32_97
*1461 FILLER_33_105
*1462 FILLER_33_122
*1463 FILLER_33_138
*1464 FILLER_33_15
*1465 FILLER_33_150
*1466 FILLER_33_162
*1467 FILLER_33_169
*1468 FILLER_33_181
*1469 FILLER_33_187
*1470 FILLER_33_197
*1471 FILLER_33_209
*1472 FILLER_33_221
*1473 FILLER_33_225
*1474 FILLER_33_237
*1475 FILLER_33_249
*1476 FILLER_33_261
*1477 FILLER_33_27
*1478 FILLER_33_274
*1479 FILLER_33_281
*1480 FILLER_33_293
*1481 FILLER_33_3
*1482 FILLER_33_305
*1483 FILLER_33_317
*1484 FILLER_33_329
*1485 FILLER_33_335
*1486 FILLER_33_337
*1487 FILLER_33_349
*1488 FILLER_33_361
*1489 FILLER_33_373
*1490 FILLER_33_385
*1491 FILLER_33_39
*1492 FILLER_33_391
*1493 FILLER_33_393
*1494 FILLER_33_405
*1495 FILLER_33_51
*1496 FILLER_33_55
*1497 FILLER_33_57
*1498 FILLER_33_69
*1499 FILLER_33_81
*1500 FILLER_33_93
*1501 FILLER_34_109
*1502 FILLER_34_113
*1503 FILLER_34_122
*1504 FILLER_34_134
*1505 FILLER_34_141
*1506 FILLER_34_15
*1507 FILLER_34_153
*1508 FILLER_34_165
*1509 FILLER_34_173
*1510 FILLER_34_194
*1511 FILLER_34_204
*1512 FILLER_34_212
*1513 FILLER_34_235
*1514 FILLER_34_247
*1515 FILLER_34_251
*1516 FILLER_34_253
*1517 FILLER_34_265
*1518 FILLER_34_269
*1519 FILLER_34_27
*1520 FILLER_34_273
*1521 FILLER_34_285
*1522 FILLER_34_289
*1523 FILLER_34_29
*1524 FILLER_34_3
*1525 FILLER_34_303
*1526 FILLER_34_307
*1527 FILLER_34_309
*1528 FILLER_34_321
*1529 FILLER_34_333
*1530 FILLER_34_345
*1531 FILLER_34_357
*1532 FILLER_34_363
*1533 FILLER_34_365
*1534 FILLER_34_377
*1535 FILLER_34_389
*1536 FILLER_34_401
*1537 FILLER_34_41
*1538 FILLER_34_53
*1539 FILLER_34_65
*1540 FILLER_34_77
*1541 FILLER_34_83
*1542 FILLER_34_85
*1543 FILLER_34_97
*1544 FILLER_35_105
*1545 FILLER_35_111
*1546 FILLER_35_113
*1547 FILLER_35_120
*1548 FILLER_35_126
*1549 FILLER_35_131
*1550 FILLER_35_143
*1551 FILLER_35_15
*1552 FILLER_35_155
*1553 FILLER_35_167
*1554 FILLER_35_169
*1555 FILLER_35_181
*1556 FILLER_35_193
*1557 FILLER_35_210
*1558 FILLER_35_222
*1559 FILLER_35_225
*1560 FILLER_35_237
*1561 FILLER_35_249
*1562 FILLER_35_261
*1563 FILLER_35_27
*1564 FILLER_35_273
*1565 FILLER_35_279
*1566 FILLER_35_281
*1567 FILLER_35_293
*1568 FILLER_35_3
*1569 FILLER_35_305
*1570 FILLER_35_316
*1571 FILLER_35_328
*1572 FILLER_35_337
*1573 FILLER_35_349
*1574 FILLER_35_361
*1575 FILLER_35_373
*1576 FILLER_35_385
*1577 FILLER_35_39
*1578 FILLER_35_391
*1579 FILLER_35_393
*1580 FILLER_35_405
*1581 FILLER_35_51
*1582 FILLER_35_55
*1583 FILLER_35_57
*1584 FILLER_35_69
*1585 FILLER_35_81
*1586 FILLER_35_93
*1587 FILLER_36_109
*1588 FILLER_36_121
*1589 FILLER_36_133
*1590 FILLER_36_139
*1591 FILLER_36_15
*1592 FILLER_36_154
*1593 FILLER_36_166
*1594 FILLER_36_178
*1595 FILLER_36_190
*1596 FILLER_36_197
*1597 FILLER_36_201
*1598 FILLER_36_211
*1599 FILLER_36_223
*1600 FILLER_36_234
*1601 FILLER_36_248
*1602 FILLER_36_253
*1603 FILLER_36_265
*1604 FILLER_36_27
*1605 FILLER_36_277
*1606 FILLER_36_289
*1607 FILLER_36_29
*1608 FILLER_36_296
*1609 FILLER_36_3
*1610 FILLER_36_314
*1611 FILLER_36_326
*1612 FILLER_36_338
*1613 FILLER_36_350
*1614 FILLER_36_362
*1615 FILLER_36_365
*1616 FILLER_36_377
*1617 FILLER_36_389
*1618 FILLER_36_41
*1619 FILLER_36_53
*1620 FILLER_36_65
*1621 FILLER_36_77
*1622 FILLER_36_83
*1623 FILLER_36_85
*1624 FILLER_36_97
*1625 FILLER_37_105
*1626 FILLER_37_111
*1627 FILLER_37_113
*1628 FILLER_37_125
*1629 FILLER_37_137
*1630 FILLER_37_149
*1631 FILLER_37_15
*1632 FILLER_37_156
*1633 FILLER_37_169
*1634 FILLER_37_181
*1635 FILLER_37_193
*1636 FILLER_37_205
*1637 FILLER_37_217
*1638 FILLER_37_223
*1639 FILLER_37_225
*1640 FILLER_37_237
*1641 FILLER_37_249
*1642 FILLER_37_261
*1643 FILLER_37_269
*1644 FILLER_37_27
*1645 FILLER_37_276
*1646 FILLER_37_286
*1647 FILLER_37_298
*1648 FILLER_37_3
*1649 FILLER_37_310
*1650 FILLER_37_322
*1651 FILLER_37_334
*1652 FILLER_37_337
*1653 FILLER_37_349
*1654 FILLER_37_361
*1655 FILLER_37_373
*1656 FILLER_37_385
*1657 FILLER_37_39
*1658 FILLER_37_391
*1659 FILLER_37_393
*1660 FILLER_37_405
*1661 FILLER_37_51
*1662 FILLER_37_55
*1663 FILLER_37_57
*1664 FILLER_37_69
*1665 FILLER_37_81
*1666 FILLER_37_93
*1667 FILLER_38_109
*1668 FILLER_38_121
*1669 FILLER_38_133
*1670 FILLER_38_139
*1671 FILLER_38_141
*1672 FILLER_38_15
*1673 FILLER_38_153
*1674 FILLER_38_165
*1675 FILLER_38_177
*1676 FILLER_38_189
*1677 FILLER_38_195
*1678 FILLER_38_197
*1679 FILLER_38_206
*1680 FILLER_38_218
*1681 FILLER_38_230
*1682 FILLER_38_249
*1683 FILLER_38_253
*1684 FILLER_38_265
*1685 FILLER_38_269
*1686 FILLER_38_27
*1687 FILLER_38_276
*1688 FILLER_38_288
*1689 FILLER_38_29
*1690 FILLER_38_296
*1691 FILLER_38_3
*1692 FILLER_38_307
*1693 FILLER_38_312
*1694 FILLER_38_324
*1695 FILLER_38_336
*1696 FILLER_38_348
*1697 FILLER_38_360
*1698 FILLER_38_365
*1699 FILLER_38_377
*1700 FILLER_38_389
*1701 FILLER_38_401
*1702 FILLER_38_41
*1703 FILLER_38_53
*1704 FILLER_38_65
*1705 FILLER_38_77
*1706 FILLER_38_83
*1707 FILLER_38_85
*1708 FILLER_38_97
*1709 FILLER_39_105
*1710 FILLER_39_111
*1711 FILLER_39_113
*1712 FILLER_39_125
*1713 FILLER_39_137
*1714 FILLER_39_145
*1715 FILLER_39_15
*1716 FILLER_39_157
*1717 FILLER_39_165
*1718 FILLER_39_169
*1719 FILLER_39_181