*SPEF "ieee 1481-1999"
*DESIGN "mult4_SARSA_RUIDO_e9_SARSA_RUIDO_e9_SarsaNStepsRuido_e9_SARSA_RUIDO_e9"
*DATE "18:37:48 Tuesday September 16, 2025"
*VENDOR "The OpenROAD Project"
*PROGRAM "OpenROAD"
*VERSION "edf00dff99f6c40d67a30c0e22a8191c5d2ed9d6"
*DESIGN_FLOW "NAME_SCOPE LOCAL" "PIN_CAP NONE"
*DIVIDER /
*DELIMITER :
*BUS_DELIMITER []
*T_UNIT 1 NS
*C_UNIT 1 PF
*R_UNIT 1 OHM
*L_UNIT 1 HENRY

*NAME_MAP
*1 A[0]
*2 A[1]
*3 A[2]
*4 A[3]
*5 B[0]
*6 B[1]
*7 B[2]
*8 B[3]
*9 P[0]
*10 P[1]
*11 P[2]
*12 P[3]
*13 P[4]
*14 P[5]
*15 P[6]
*16 P[7]
*19 _00_
*20 _01_
*21 _02_
*22 _03_
*23 _04_
*24 _05_
*25 _06_
*26 _07_
*27 _08_
*28 _09_
*29 _10_
*30 _11_
*31 _12_
*32 _13_
*33 _14_
*34 _15_
*35 _16_
*36 _17_
*37 _18_
*38 _19_
*39 _20_
*40 _21_
*41 _22_
*42 _23_
*43 _24_
*44 _25_
*45 _26_
*46 _27_
*47 _28_
*48 _29_
*49 _30_
*50 _31_
*51 _32_
*52 _33_
*53 _34_
*54 _35_
*55 _36_
*56 _37_
*57 _38_
*58 _39_
*59 _40_
*60 _41_
*61 _42_
*62 _43_
*63 _44_
*64 _45_
*65 net1
*66 net10
*67 net11
*68 net12
*69 net13
*70 net14
*71 net15
*72 net16
*73 net2
*74 net3
*75 net4
*76 net5
*77 net6
*78 net7
*79 net8
*80 net9
*81 FILLER_0_13
*82 FILLER_0_21
*83 FILLER_0_36
*84 FILLER_0_44
*85 FILLER_0_49
*86 FILLER_0_55
*87 FILLER_0_57
*88 FILLER_0_69
*89 FILLER_1_13
*90 FILLER_1_37
*91 FILLER_1_49
*92 FILLER_1_57
*93 FILLER_1_68
*94 FILLER_1_74
*95 FILLER_2_14
*96 FILLER_2_23
*97 FILLER_2_27
*98 FILLER_2_29
*99 FILLER_2_40
*100 FILLER_2_52
*101 FILLER_2_60
*102 FILLER_2_66
*103 FILLER_2_75
*104 FILLER_3_10
*105 FILLER_3_16
*106 FILLER_3_22
*107 FILLER_3_26
*108 FILLER_3_53
*109 FILLER_3_57
*110 FILLER_3_70
*111 FILLER_3_78
*112 FILLER_4_21
*113 FILLER_4_27
*114 FILLER_4_29
*115 FILLER_4_45
*116 FILLER_4_57
*117 FILLER_4_71
*118 FILLER_4_79
*119 FILLER_4_9
*120 FILLER_5_21
*121 FILLER_5_3
*122 FILLER_5_44
*123 FILLER_5_57
*124 FILLER_5_69
*125 FILLER_6_15
*126 FILLER_6_26
*127 FILLER_6_29
*128 FILLER_6_3
*129 FILLER_6_71
*130 FILLER_6_79
*131 FILLER_7_20
*132 FILLER_7_38
*133 FILLER_7_49
*134 FILLER_7_55
*135 FILLER_7_57
*136 FILLER_7_69
*137 FILLER_8_23
*138 FILLER_8_27
*139 FILLER_8_29
*140 FILLER_8_3
*141 FILLER_8_37
*142 FILLER_8_45
*143 FILLER_8_53
*144 FILLER_8_74
*145 FILLER_8_80
*146 FILLER_9_18
*147 FILLER_9_26
*148 FILLER_9_29
*149 FILLER_9_41
*150 FILLER_9_54
*151 FILLER_9_57
*152 FILLER_9_69
*153 FILLER_9_7
*154 PHY_EDGE_ROW_0_Left_10
*155 PHY_EDGE_ROW_0_Right_0
*156 PHY_EDGE_ROW_1_Left_11
*157 PHY_EDGE_ROW_1_Right_1
*158 PHY_EDGE_ROW_2_Left_12
*159 PHY_EDGE_ROW_2_Right_2
*160 PHY_EDGE_ROW_3_Left_13
*161 PHY_EDGE_ROW_3_Right_3
*162 PHY_EDGE_ROW_4_Left_14
*163 PHY_EDGE_ROW_4_Right_4
*164 PHY_EDGE_ROW_5_Left_15
*165 PHY_EDGE_ROW_5_Right_5
*166 PHY_EDGE_ROW_6_Left_16
*167 PHY_EDGE_ROW_6_Right_6
*168 PHY_EDGE_ROW_7_Left_17
*169 PHY_EDGE_ROW_7_Right_7
*170 PHY_EDGE_ROW_8_Left_18
*171 PHY_EDGE_ROW_8_Right_8
*172 PHY_EDGE_ROW_9_Left_19
*173 PHY_EDGE_ROW_9_Right_9
*174 TAP_TAPCELL_ROW_0_20
*175 TAP_TAPCELL_ROW_0_21
*176 TAP_TAPCELL_ROW_1_22
*177 TAP_TAPCELL_ROW_2_23
*178 TAP_TAPCELL_ROW_3_24
*179 TAP_TAPCELL_ROW_4_25
*180 TAP_TAPCELL_ROW_5_26
*181 TAP_TAPCELL_ROW_6_27
*182 TAP_TAPCELL_ROW_7_28
*183 TAP_TAPCELL_ROW_8_29
*184 TAP_TAPCELL_ROW_9_30
*185 TAP_TAPCELL_ROW_9_31
*186 _46_
*187 _47_
*188 _48_
*189 _49_
*190 _50_
*191 _51_
*192 _52_
*193 _53_
*194 _54_
*195 _55_
*196 _56_
*197 _57_
*198 _58_
*199 _59_
*200 _60_
*201 _61_
*202 _62_
*203 _63_
*204 _64_
*205 _65_
*206 _66_
*207 _67_
*208 _68_
*209 _69_
*210 _70_
*211 _71_
*212 _72_
*213 _73_
*214 _74_
*215 _75_
*216 _76_
*217 _77_
*218 _78_
*219 _79_
*220 _80_
*221 _81_
*222 _82_
*223 _83_
*224 _84_
*225 _85_
*226 _86_
*227 _87_
*228 _88_
*229 _89_
*230 _90_
*231 _91_
*232 _92_
*233 _93_
*234 _94_
*235 _95_
*236 _96_
*237 _97_
*238 _98_
*239 _99_
*240 input1
*241 input2
*242 input3
*243 input4
*244 input5
*245 input6
*246 input7
*247 input8
*248 output10
*249 output11
*250 output12
*251 output13
*252 output14
*253 output15
*254 output16
*255 output9

*PORTS
A[0] I
A[1] I
A[2] I
A[3] I
B[0] I
B[1] I
B[2] I
B[3] I
P[0] O
P[1] O
P[2] O
P[3] O
P[4] O
P[5] O
P[6] O
P[7] O

*D_NET *1 0.000642939
*CONN
*P A[0] I
*I *240:A I *D sky130_fd_sc_hd__dlymetal6s2s_1
*CAP
1 A[0] 0.00030788
2 *240:A 0.00030788
3 *240:A *245:A 2.71788e-05
*RES
1 A[0] *240:A 21.0874 
*END

*D_NET *2 0.000741128
*CONN
*P A[1] I
*I *241:A I *D sky130_fd_sc_hd__buf_1
*CAP
1 A[1] 0.000228056
2 *241:A 0.000228056
3 *241:A *244:A 0.00026242
4 *241:A *246:A 2.25951e-05
5 *241:A *77:73 0
*RES
1 A[1] *241:A 20.7838 
*END

*D_NET *3 0.000636125
*CONN
*P A[2] I
*I *242:A I *D sky130_fd_sc_hd__clkbuf_2
*CAP
1 A[2] 0.000302093
2 *242:A 0.000302093
3 *242:A *247:A 3.19385e-05
*RES
1 A[2] *242:A 20.891 
*END

*D_NET *4 0.000576861
*CONN
*P A[3] I
*I *243:A I *D sky130_fd_sc_hd__dlymetal6s2s_1
*CAP
1 A[3] 0.000262749
2 *243:A 0.000262749
3 *243:A *246:A 2.25951e-05
4 *243:A *247:A 2.87684e-05
*RES
1 A[3] *243:A 20.4803 
*END

*D_NET *5 0.00101716
*CONN
*P B[0] I
*I *244:A I *D sky130_fd_sc_hd__buf_1
*CAP
1 B[0] 0.000358785
2 *244:A 0.000358785
3 *244:A P[1] 3.71658e-05
4 *244:A *246:A 0
5 *244:A *73:10 0
6 *244:A *77:73 0
7 *241:A *244:A 0.00026242
*RES
1 B[0] *244:A 23.1197 
*END

*D_NET *6 0.000586627
*CONN
*P B[1] I
*I *245:A I *D sky130_fd_sc_hd__dlymetal6s2s_1
*CAP
1 B[1] 0.00026534
2 *245:A 0.00026534
3 *245:A P[1] 2.87684e-05
4 *240:A *245:A 2.71788e-05
*RES
1 B[1] *245:A 20.4803 
*END

*D_NET *7 0.00121321
*CONN
*P B[2] I
*I *246:A I *D sky130_fd_sc_hd__buf_1
*CAP
1 B[2] 0.000562814
2 *246:A 0.000562814
3 *246:A *212:A2 1.90936e-05
4 *246:A *247:A 0
5 *246:A *35:10 0
6 *246:A *78:8 2.33003e-05
7 *241:A *246:A 2.25951e-05
8 *243:A *246:A 2.25951e-05
9 *244:A *246:A 0
*RES
1 B[2] *246:A 19.3786 
*END

*D_NET *8 0.00161478
*CONN
*P B[3] I
*I *247:A I *D sky130_fd_sc_hd__clkbuf_2
*CAP
1 B[3] 0.000651693
2 *247:A 0.000651693
3 *247:A *232:B1 0
4 *247:A *74:14 0.000138024
5 *247:A *79:8 0.000112667
6 *242:A *247:A 3.19385e-05
7 *243:A *247:A 2.87684e-05
8 *246:A *247:A 0
*RES
1 B[3] *247:A 21.1127 
*END

*D_NET *9 0.000901613
*CONN
*P P[0] O
*I *255:X O *D sky130_fd_sc_hd__buf_2
*CAP
1 P[0] 0.000424135
2 *255:X 0.000424135
3 P[0] *80:6 5.33433e-05
*RES
1 *255:X P[0] 21.6393 
*END

*D_NET *10 0.00129019
*CONN
*P P[1] O
*I *248:X O *D sky130_fd_sc_hd__buf_2
*CAP
1 P[1] 0.000409775
2 *248:X 0.000409775
3 P[1] *189:A_N 0.000404707
4 P[1] *77:73 0
5 *244:A P[1] 3.71658e-05
6 *245:A P[1] 2.87684e-05
*RES
1 *248:X P[1] 23.5674 
*END

*D_NET *11 0.000939431
*CONN
*P P[2] O
*I *249:X O *D sky130_fd_sc_hd__buf_2
*CAP
1 P[2] 0.00046669
2 *249:X 0.00046669
3 P[2] *249:A 6.05161e-06
*RES
1 *249:X P[2] 22.3 
*END

*D_NET *12 0.000501113
*CONN
*P P[3] O
*I *250:X O *D sky130_fd_sc_hd__buf_2
*CAP
1 P[3] 0.000208532
2 *250:X 0.000208532
3 P[3] P[4] 8.40493e-05
*RES
1 *250:X P[3] 18.1949 
*END

*D_NET *13 0.0005178
*CONN
*P P[4] O
*I *251:X O *D sky130_fd_sc_hd__buf_2
*CAP
1 P[4] 0.000216875
2 *251:X 0.000216875
3 P[4] P[5] 0
4 P[4] *239:A 0
5 P[3] P[4] 8.40493e-05
*RES
1 *251:X P[4] 18.4985 
*END

*D_NET *14 0.000556553
*CONN
*P P[5] O
*I *252:X O *D sky130_fd_sc_hd__buf_2
*CAP
1 P[5] 0.000278276
2 *252:X 0.000278276
3 P[5] *230:B 0
4 P[4] P[5] 0
*RES
1 *252:X P[5] 18.8021 
*END

*D_NET *15 0.000635622
*CONN
*P P[6] O
*I *253:X O *D sky130_fd_sc_hd__buf_2
*CAP
1 P[6] 0.000298168
2 *253:X 0.000298168
3 P[6] *235:A 0
4 P[6] *253:A 3.92854e-05
*RES
1 *253:X P[6] 19.4092 
*END

*D_NET *16 0.00138641
*CONN
*P P[7] O
*I *254:X O *D sky130_fd_sc_hd__buf_2
*CAP
1 P[7] 0.00063729
2 *254:X 0.00063729
3 P[7] *233:B 2.14658e-05
4 P[7] *237:B1 4.51641e-05
5 P[7] *254:A 3.18676e-05
6 P[7] *60:8 1.33343e-05
*RES
1 *254:X P[7] 25.4429 
*END

*D_NET *19 0.00133149
*CONN
*I *190:B I *D sky130_fd_sc_hd__nor2_1
*I *192:B I *D sky130_fd_sc_hd__or3_1
*I *187:Y O *D sky130_fd_sc_hd__nand2_1
*CAP
1 *190:B 0.000123061
2 *192:B 8.56407e-05
3 *187:Y 0.000165751
4 *19:10 0.000374453
5 *190:B *188:B 0
6 *190:B *190:A 0.000185547
7 *190:B *192:C 1.24368e-05
8 *190:B *193:A 6.05916e-05
9 *190:B *209:B 8.43535e-06
10 *192:B *194:B 8.07951e-05
11 *192:B *209:B 0
12 *192:B *22:10 5.66157e-05
13 *192:B *80:21 5.7616e-05
14 *19:10 *209:B 0
15 *19:10 *22:10 6.73939e-05
16 *19:10 *37:6 2.42516e-05
17 *19:10 *77:27 7.43578e-06
18 *19:10 *77:36 2.14658e-05
*RES
1 *187:Y *19:10 16.1929 
2 *19:10 *192:B 15.4429 
3 *19:10 *190:B 16.9607 
*END

*D_NET *20 0.00289342
*CONN
*I *208:B1 I *D sky130_fd_sc_hd__a31o_1
*I *207:C I *D sky130_fd_sc_hd__and4_1
*I *189:A_N I *D sky130_fd_sc_hd__and3b_1
*I *188:X O *D sky130_fd_sc_hd__and4_1
*CAP
1 *208:B1 6.33433e-05
2 *207:C 7.05452e-05
3 *189:A_N 0.000177313
4 *188:X 0.000353429
5 *20:14 0.000329473
6 *20:6 0.000498387
7 *189:A_N *207:A 5.33005e-05
8 *189:A_N *248:A 0.000229456
9 *189:A_N *77:27 0.000133025
10 *207:C *207:A 4.08637e-05
11 *207:C *77:27 2.28598e-05
12 *208:B1 *207:B 1.30506e-05
13 *208:B1 *79:58 4.62014e-05
14 *20:6 *188:A 9.22103e-06
15 *20:6 *188:B 4.53889e-05
16 *20:6 *192:C 6.05161e-06
17 *20:6 *207:B 2.89114e-05
18 *20:6 *208:A3 1.39726e-05
19 *20:6 *209:B 5.68809e-05
20 *20:6 *79:58 2.37244e-06
21 *20:14 *65:34 0.00012401
22 *20:14 *65:47 2.24646e-05
23 *20:14 *76:14 0.000148189
24 P[1] *189:A_N 0.000404707
*RES
1 *188:X *20:6 13.7375 
2 *20:6 *20:14 11.2768 
3 *20:14 *189:A_N 15.175 
4 *20:14 *207:C 10.675 
5 *20:6 *208:B1 10.8982 
*END

*D_NET *21 0.00109986
*CONN
*I *194:A I *D sky130_fd_sc_hd__xnor2_1
*I *190:Y O *D sky130_fd_sc_hd__nor2_1
*CAP
1 *194:A 0.00041347
2 *190:Y 0.00041347
3 *194:A *193:A 1.97441e-05
4 *194:A *194:B 1.04232e-05
5 *194:A *209:B 9.91033e-05
6 *194:A *249:A 0.000143652
7 *194:A *80:21 0
*RES
1 *190:Y *194:A 34.4393 
*END

*D_NET *22 0.00355064
*CONN
*I *197:C I *D sky130_fd_sc_hd__and3_1
*I *202:C_N I *D sky130_fd_sc_hd__or3b_1
*I *192:C I *D sky130_fd_sc_hd__or3_1
*I *194:B I *D sky130_fd_sc_hd__xnor2_1
*I *191:Y O *D sky130_fd_sc_hd__nand2_1
*CAP
1 *197:C 0.00019711
2 *202:C_N 3.49908e-05
3 *192:C 2.84356e-05
4 *194:B 0.000248127
5 *191:Y 0.000115747
6 *22:42 0.000508349
7 *22:10 0.000431599
8 *22:6 0.000547032
9 *192:C *209:B 2.59355e-05
10 *194:B *188:B 3.34366e-05
11 *194:B *65:23 0
12 *194:B *80:6 7.43578e-06
13 *194:B *80:21 9.15315e-05
14 *197:C *197:A 0.000255139
15 *197:C *32:16 5.52238e-05
16 *202:C_N *196:A 1.02132e-05
17 *202:C_N *197:A 3.52515e-05
18 *202:C_N *202:A 5.46824e-05
19 *202:C_N *42:18 1.10627e-05
20 *22:6 *65:80 5.33005e-05
21 *22:6 *73:56 2.97829e-05
22 *22:10 *188:B 0.000162832
23 *22:10 *209:B 0
24 *22:10 *77:55 0.000173804
25 *22:42 *42:18 0.000153314
26 *22:42 *73:56 5.25896e-05
27 *22:42 *77:55 0
28 *190:B *192:C 1.24368e-05
29 *192:B *194:B 8.07951e-05
30 *192:B *22:10 5.66157e-05
31 *194:A *194:B 1.04232e-05
32 *19:10 *22:10 6.73939e-05
33 *20:6 *192:C 6.05161e-06
*RES
1 *191:Y *22:6 11.0679 
2 *22:6 *22:10 8.875 
3 *22:10 *194:B 18.4964 
4 *22:10 *192:C 14.3357 
5 *22:6 *22:42 9.79464 
6 *22:42 *202:C_N 14.8804 
7 *22:42 *197:C 17.4696 
*END

*D_NET *23 0.00125292
*CONN
*I *193:A I *D sky130_fd_sc_hd__inv_2
*I *192:X O *D sky130_fd_sc_hd__or3_1
*CAP
1 *193:A 0.000563862
2 *192:X 0.000563862
3 *193:A *190:A 4.48647e-05
4 *190:B *193:A 6.05916e-05
5 *194:A *193:A 1.97441e-05
*RES
1 *192:X *193:A 27.7964 
*END

*D_NET *24 0.00129295
*CONN
*I *238:A I *D sky130_fd_sc_hd__or2_1
*I *228:A1 I *D sky130_fd_sc_hd__a31o_1
*I *217:A I *D sky130_fd_sc_hd__nand2_1
*I *193:Y O *D sky130_fd_sc_hd__inv_2
*CAP
1 *238:A 0
2 *228:A1 6.43619e-05
3 *217:A 0
4 *193:Y 0.000306486
5 *24:10 0.00014636
6 *24:6 0.000388484
7 *228:A1 *218:A 0.000199706
8 *228:A1 *46:10 8.98897e-05
9 *24:10 *218:A 1.02504e-05
10 *24:10 *238:B 8.16036e-05
11 *24:10 *239:A 0
12 *24:10 *46:10 5.80706e-06
*RES
1 *193:Y *24:6 13.9429 
2 *24:6 *24:10 6.44643 
3 *24:10 *217:A 13.8 
4 *24:10 *228:A1 16.3536 
5 *24:6 *238:A 9.3 
*END

*D_NET *25 0.00331733
*CONN
*I *224:A1 I *D sky130_fd_sc_hd__o21a_1
*I *204:A I *D sky130_fd_sc_hd__xor2_1
*I *225:A1 I *D sky130_fd_sc_hd__o211a_1
*I *231:C I *D sky130_fd_sc_hd__and3_1
*I *195:Y O *D sky130_fd_sc_hd__nand2_1
*CAP
1 *224:A1 0
2 *204:A 6.71635e-05
3 *225:A1 0
4 *231:C 1.98639e-05
5 *195:Y 0.000256558
6 *25:37 0.000456758
7 *25:25 0.000702527
8 *25:10 0.000589354
9 *204:A *204:B 0.000232399
10 *204:A *54:8 0.000144773
11 *25:10 *231:A 0.00014051
12 *25:10 *231:B 2.95944e-05
13 *25:10 *48:8 0.000114661
14 *25:10 *48:21 0.000230297
15 *25:37 *204:B 1.69961e-05
16 *25:37 *225:A2 1.04232e-05
17 *25:37 *225:B1 3.18676e-05
18 *25:37 *225:C1 6.84219e-05
19 *25:37 *32:16 0.000173465
20 *25:37 *33:12 0
21 *25:37 *33:21 3.16935e-05
*RES
1 *195:Y *25:10 14.8 
2 *25:10 *231:C 9.925 
3 *25:10 *25:25 9.64286 
4 *25:25 *25:37 10.75 
5 *25:37 *225:A1 9.3 
6 *25:37 *204:A 11.8893 
7 *25:25 *224:A1 13.8 
*END

*D_NET *26 0.000483671
*CONN
*I *202:A I *D sky130_fd_sc_hd__or3b_1
*I *196:Y O *D sky130_fd_sc_hd__nand2_1
*CAP
1 *202:A 6.21148e-05
2 *196:Y 6.21148e-05
3 *202:A *197:A 7.68474e-05
4 *202:A *197:B 0.000227912
5 *202:C_N *202:A 5.46824e-05
*RES
1 *196:Y *202:A 20.7786 
*END

*D_NET *27 0.000516529
*CONN
*I *203:A I *D sky130_fd_sc_hd__xor2_1
*I *197:X O *D sky130_fd_sc_hd__and3_1
*CAP
1 *203:A 9.09095e-05
2 *197:X 9.09095e-05
3 *203:A *197:B 5.52238e-05
4 *203:A *202:B 0.000126439
5 *203:A *32:16 0.000153047
6 *203:A *79:40 0
*RES
1 *197:X *203:A 30.0821 
*END

*D_NET *28 0.000374301
*CONN
*I *201:S I *D sky130_fd_sc_hd__mux2_1
*I *198:X O *D sky130_fd_sc_hd__and3_1
*CAP
1 *201:S 0.000166883
2 *198:X 0.000166883
3 *201:S *210:B1 0
4 *201:S *231:B 5.39166e-06
5 *201:S *77:55 3.51442e-05
6 *201:S *79:40 0
*RES
1 *198:X *201:S 30.0821 
*END

*D_NET *29 0.00116307
*CONN
*I *232:A1 I *D sky130_fd_sc_hd__a21o_1
*I *221:A I *D sky130_fd_sc_hd__xnor2_1
*I *199:X O *D sky130_fd_sc_hd__and4_1
*CAP
1 *232:A1 8.77605e-05
2 *221:A 4.01639e-05
3 *199:X 0.000203246
4 *29:12 0.000331171
5 *232:A1 *219:A 0
6 *232:A1 *232:A2 0.000199223
7 *232:A1 *232:B1 8.06427e-05
8 *232:A1 *35:10 3.22325e-05
9 *232:A1 *74:14 0
10 *29:12 *219:A 0
11 *29:12 *232:B1 3.69047e-06
12 *29:12 *35:10 0.000116882
13 *29:12 *74:29 0
14 *29:12 *78:8 4.1331e-06
15 *29:12 *78:47 6.39262e-05
*RES
1 *199:X *29:12 23.3179 
2 *29:12 *221:A 9.83571 
3 *29:12 *232:A1 21.1571 
*END

*D_NET *30 0.000528714
*CONN
*I *201:A0 I *D sky130_fd_sc_hd__mux2_1
*I *200:Y O *D sky130_fd_sc_hd__nand2_1
*CAP
1 *201:A0 0.00015019
2 *200:Y 0.00015019
3 *201:A0 *200:B 0.000228334
*RES
1 *200:Y *201:A0 20.7786 
*END

*D_NET *31 0.000801705
*CONN
*I *203:B I *D sky130_fd_sc_hd__xor2_1
*I *202:B I *D sky130_fd_sc_hd__or3b_1
*I *201:X O *D sky130_fd_sc_hd__mux2_1
*CAP
1 *203:B 0
2 *202:B 0.000107985
3 *201:X 0.00014925
4 *31:8 0.000257235
5 *202:B *197:B 5.68722e-05
6 *202:B *79:40 0
7 *31:8 *200:A 5.65955e-05
8 *31:8 *200:B 4.73286e-05
9 *203:A *202:B 0.000126439
*RES
1 *201:X *31:8 11.9071 
2 *31:8 *202:B 20.4786 
3 *31:8 *203:B 9.3 
*END

*D_NET *32 0.00153085
*CONN
*I *225:C1 I *D sky130_fd_sc_hd__o211a_1
*I *224:B1 I *D sky130_fd_sc_hd__o21a_1
*I *202:X O *D sky130_fd_sc_hd__or3b_1
*CAP
1 *225:C1 2.9133e-05
2 *224:B1 0
3 *202:X 0.00041677
4 *32:16 0.000445903
5 *225:C1 *224:A2 5.49489e-05
6 *225:C1 *33:21 8.66063e-05
7 *32:16 *224:A2 4.73286e-05
8 *32:16 *79:40 0
9 *197:C *32:16 5.52238e-05
10 *203:A *32:16 0.000153047
11 *25:37 *225:C1 6.84219e-05
12 *25:37 *32:16 0.000173465
*RES
1 *202:X *32:16 26.3179 
2 *32:16 *224:B1 9.3 
3 *32:16 *225:C1 10.6571 
*END

*D_NET *33 0.00158101
*CONN
*I *204:B I *D sky130_fd_sc_hd__xor2_1
*I *225:A2 I *D sky130_fd_sc_hd__o211a_1
*I *224:A2 I *D sky130_fd_sc_hd__o21a_1
*I *203:X O *D sky130_fd_sc_hd__xor2_1
*CAP
1 *204:B 9.68221e-05
2 *225:A2 1.9971e-05
3 *224:A2 5.96821e-05
4 *203:X 0.000248098
5 *33:21 0.000210819
6 *33:12 0.000401806
7 *33:12 *225:B1 8.18233e-06
8 *33:21 *225:B1 5.52302e-05
9 *204:A *204:B 0.000232399
10 *225:C1 *224:A2 5.49489e-05
11 *225:C1 *33:21 8.66063e-05
12 *25:37 *204:B 1.69961e-05
13 *25:37 *225:A2 1.04232e-05
14 *25:37 *33:12 0
15 *25:37 *33:21 3.16935e-05
16 *32:16 *224:A2 4.73286e-05
*RES
1 *203:X *33:12 22.1036 
2 *33:12 *224:A2 10.6571 
3 *33:12 *33:21 2.17857 
4 *33:21 *225:A2 9.72857 
5 *33:21 *204:B 11.8893 
*END

*D_NET *34 0.00154031
*CONN
*I *229:C_N I *D sky130_fd_sc_hd__nor3b_1
*I *214:B I *D sky130_fd_sc_hd__and2b_1
*I *215:A I *D sky130_fd_sc_hd__xnor2_1
*I *204:X O *D sky130_fd_sc_hd__xor2_1
*CAP
1 *229:C_N 2.16932e-05
2 *214:B 0.000144248
3 *215:A 3.80549e-05
4 *204:X 4.60749e-05
5 *34:14 0.000407549
6 *34:8 0.000293014
7 *214:B *214:A_N 4.38128e-05
8 *214:B *43:21 9.90431e-05
9 *214:B *45:10 5.33334e-05
10 *215:A *43:21 9.90367e-05
11 *229:C_N *54:8 4.27935e-05
12 *34:8 *54:8 5.52238e-05
13 *34:14 *229:A 0.000196432
*RES
1 *204:X *34:8 10.2643 
2 *34:8 *34:14 13.9821 
3 *34:14 *215:A 10.2464 
4 *34:14 *214:B 12.6214 
5 *34:8 *229:C_N 9.83571 
*END

*D_NET *35 0.00242791
*CONN
*I *232:A2 I *D sky130_fd_sc_hd__a21o_1
*I *221:B I *D sky130_fd_sc_hd__xnor2_1
*I *205:X O *D sky130_fd_sc_hd__and4_1
*CAP
1 *232:A2 0.000103489
2 *221:B 2.94147e-05
3 *205:X 0.000546127
4 *35:10 0.000679031
5 *35:10 *199:B 0.000125372
6 *35:10 *205:C 5.52302e-05
7 *35:10 *205:D 0.000148189
8 *35:10 *211:A_N 6.87834e-06
9 *35:10 *212:A2 0
10 *35:10 *65:53 5.71472e-05
11 *35:10 *75:12 0.000109809
12 *35:10 *77:73 0.000218887
13 *35:10 *78:8 0
14 *232:A1 *232:A2 0.000199223
15 *232:A1 *35:10 3.22325e-05
16 *246:A *35:10 0
17 *29:12 *35:10 0.000116882
*RES
1 *205:X *35:10 26.6036 
2 *35:10 *221:B 14.3357 
3 *35:10 *232:A2 16.3536 
*END

*D_NET *36 0.00137962
*CONN
*I *207:D I *D sky130_fd_sc_hd__and4_1
*I *208:A3 I *D sky130_fd_sc_hd__a31o_1
*I *206:Y O *D sky130_fd_sc_hd__nand4_1
*CAP
1 *207:D 0
2 *208:A3 0.000168144
3 *206:Y 0.000298395
4 *36:10 0.000466538
5 *208:A3 *188:A 5.71472e-05
6 *208:A3 *188:D 0
7 *208:A3 *207:B 0.000114158
8 *208:A3 *65:23 1.52978e-05
9 *208:A3 *65:34 3.25078e-05
10 *208:A3 *65:47 4.46186e-06
11 *36:10 *188:D 0
12 *36:10 *65:47 7.15591e-05
13 *36:10 *65:49 6.42095e-05
14 *36:10 *65:53 2.89016e-05
15 *36:10 *65:80 4.43256e-05
16 *36:10 *73:28 0
17 *20:6 *208:A3 1.39726e-05
*RES
1 *206:Y *36:10 18.3357 
2 *36:10 *208:A3 16.8893 
3 *36:10 *207:D 13.8 
*END

*D_NET *37 0.00158392
*CONN
*I *213:B1_N I *D sky130_fd_sc_hd__o21ba_1
*I *209:A_N I *D sky130_fd_sc_hd__nand2b_1
*I *207:X O *D sky130_fd_sc_hd__and4_1
*CAP
1 *213:B1_N 0.000360273
2 *209:A_N 2.22847e-05
3 *207:X 0.000313035
4 *37:6 0.000695593
5 *213:B1_N *209:B 1.28809e-05
6 *213:B1_N *39:10 0
7 *37:6 *77:27 0.00010038
8 *37:6 *77:36 5.52238e-05
9 *19:10 *37:6 2.42516e-05
*RES
1 *207:X *37:6 14.7643 
2 *37:6 *209:A_N 9.72857 
3 *37:6 *213:B1_N 24.2643 
*END

*D_NET *38 0.00170169
*CONN
*I *209:B I *D sky130_fd_sc_hd__nand2b_1
*I *208:X O *D sky130_fd_sc_hd__a31o_1
*CAP
1 *209:B 0.000507717
2 *208:X 0.000507717
3 *209:B *188:A 5.71472e-05
4 *209:B *188:B 0.000155196
5 *209:B *190:A 0.00027068
6 *209:B *79:58 0
7 *190:B *209:B 8.43535e-06
8 *192:B *209:B 0
9 *192:C *209:B 2.59355e-05
10 *194:A *209:B 9.91033e-05
11 *213:B1_N *209:B 1.28809e-05
12 *19:10 *209:B 0
13 *20:6 *209:B 5.68809e-05
14 *22:10 *209:B 0
*RES
1 *208:X *209:B 37.4259 
*END

*D_NET *39 0.00107062
*CONN
*I *216:A I *D sky130_fd_sc_hd__xor2_1
*I *213:A1 I *D sky130_fd_sc_hd__o21ba_1
*I *209:Y O *D sky130_fd_sc_hd__nand2b_1
*CAP
1 *216:A 0.000162353
2 *213:A1 6.16685e-05
3 *209:Y 0.000104526
4 *39:10 0.000328548
5 *213:A1 *213:A2 5.7661e-06
6 *213:A1 *42:18 1.92789e-05
7 *216:A *216:B 0.000223319
8 *216:A *42:18 2.06653e-05
9 *216:A *43:14 0.000144498
10 *213:B1_N *39:10 0
*RES
1 *209:Y *39:10 19.9429 
2 *39:10 *213:A1 10.5679 
3 *39:10 *216:A 14.1036 
*END

*D_NET *40 0.000227897
*CONN
*I *212:B1 I *D sky130_fd_sc_hd__a31o_1
*I *210:Y O *D sky130_fd_sc_hd__a21oi_1
*CAP
1 *212:B1 4.99875e-05
2 *210:Y 4.99875e-05
3 *212:B1 *212:A1 5.33005e-05
4 *212:B1 *42:18 5.17614e-05
5 *212:B1 *75:38 2.28598e-05
*RES
1 *210:Y *212:B1 19.975 
*END

*D_NET *41 0.00017414
*CONN
*I *212:A3 I *D sky130_fd_sc_hd__a31o_1
*I *211:Y O *D sky130_fd_sc_hd__nand2b_1
*CAP
1 *212:A3 5.89205e-05
2 *211:Y 5.89205e-05
3 *212:A3 *42:18 5.62995e-05
*RES
1 *211:Y *212:A3 19.9571 
*END

*D_NET *42 0.00366007
*CONN
*I *216:B I *D sky130_fd_sc_hd__xor2_1
*I *213:A2 I *D sky130_fd_sc_hd__o21ba_1
*I *212:X O *D sky130_fd_sc_hd__a31o_1
*CAP
1 *216:B 0.00021755
2 *213:A2 2.0258e-05
3 *212:X 0.00112728
4 *42:18 0.00136509
5 *216:B *43:14 1.74352e-05
6 *42:18 *200:A 6.09804e-05
7 *42:18 *200:B 8.70144e-05
8 *42:18 *212:A1 1.39841e-05
9 *42:18 *73:56 7.54868e-05
10 *42:18 *75:38 3.97657e-05
11 *42:18 *77:55 1.92905e-05
12 *42:18 *79:40 5.10822e-05
13 *42:18 *79:44 2.33783e-05
14 *202:C_N *42:18 1.10627e-05
15 *212:A3 *42:18 5.62995e-05
16 *212:B1 *42:18 5.17614e-05
17 *213:A1 *213:A2 5.7661e-06
18 *213:A1 *42:18 1.92789e-05
19 *216:A *216:B 0.000223319
20 *216:A *42:18 2.06653e-05
21 *22:42 *42:18 0.000153314
*RES
1 *212:X *42:18 34.8893 
2 *42:18 *213:A2 9.72857 
3 *42:18 *216:B 13.8536 
*END

*D_NET *43 0.00233594
*CONN
*I *214:A_N I *D sky130_fd_sc_hd__and2b_1
*I *229:A I *D sky130_fd_sc_hd__nor3b_1
*I *215:B I *D sky130_fd_sc_hd__xnor2_1
*I *213:X O *D sky130_fd_sc_hd__o21ba_1
*CAP
1 *214:A_N 2.18155e-05
2 *229:A 0.000202611
3 *215:B 0
4 *213:X 0.00054392
5 *43:21 0.00032392
6 *43:14 0.000643414
7 *229:A *230:A 0
8 *229:A *230:B 0
9 *214:B *214:A_N 4.38128e-05
10 *214:B *43:21 9.90431e-05
11 *215:A *43:21 9.90367e-05
12 *216:A *43:14 0.000144498
13 *216:B *43:14 1.74352e-05
14 *34:14 *229:A 0.000196432
*RES
1 *213:X *43:14 27.4607 
2 *43:14 *215:B 9.3 
3 *43:14 *43:21 2.17857 
4 *43:21 *229:A 22.9786 
5 *43:21 *214:A_N 9.83571 
*END

*D_NET *44 0.000614744
*CONN
*I *228:B1 I *D sky130_fd_sc_hd__a31o_1
*I *214:X O *D sky130_fd_sc_hd__and2b_1
*CAP
1 *228:B1 0.000217916
2 *214:X 0.000217916
3 *228:B1 *228:A3 7.16452e-05
4 *228:B1 *230:B 0.000107267
5 *228:B1 *45:10 0
*RES
1 *214:X *228:B1 31.8321 
*END

*D_NET *45 0.0011899
*CONN
*I *228:A2 I *D sky130_fd_sc_hd__a31o_1
*I *218:A I *D sky130_fd_sc_hd__xnor2_1
*I *215:Y O *D sky130_fd_sc_hd__xnor2_1
*CAP
1 *228:A2 0
2 *218:A 0.000202498
3 *215:Y 0.000185497
4 *45:10 0.000387995
5 *218:A *239:A 9.69119e-06
6 *218:A *47:6 0.000140933
7 *214:B *45:10 5.33334e-05
8 *228:A1 *218:A 0.000199706
9 *228:B1 *45:10 0
10 *24:10 *218:A 1.02504e-05
*RES
1 *215:Y *45:10 16.6929 
2 *45:10 *218:A 18.1214 
3 *45:10 *228:A2 13.8 
*END

*D_NET *46 0.00150783
*CONN
*I *228:A3 I *D sky130_fd_sc_hd__a31o_1
*I *217:B I *D sky130_fd_sc_hd__nand2_1
*I *238:B I *D sky130_fd_sc_hd__or2_1
*I *216:X O *D sky130_fd_sc_hd__xor2_1
*CAP
1 *228:A3 0.000130037
2 *217:B 0
3 *238:B 0.000100024
4 *216:X 0.000306159
5 *46:10 0.000193248
6 *46:6 0.000529419
7 *238:B *239:A 0
8 *228:A1 *46:10 8.98897e-05
9 *228:B1 *228:A3 7.16452e-05
10 *24:10 *238:B 8.16036e-05
11 *24:10 *46:10 5.80706e-06
*RES
1 *216:X *46:6 13.9429 
2 *46:6 *46:10 6.75 
3 *46:10 *238:B 16.05 
4 *46:10 *217:B 13.8 
5 *46:6 *228:A3 11.4964 
*END

*D_NET *47 0.000721139
*CONN
*I *218:B I *D sky130_fd_sc_hd__xnor2_1
*I *239:A I *D sky130_fd_sc_hd__and2_1
*I *217:Y O *D sky130_fd_sc_hd__nand2_1
*CAP
1 *218:B 0
2 *239:A 0.000165632
3 *217:Y 0.000119625
4 *47:6 0.000285258
5 P[4] *239:A 0
6 *218:A *239:A 9.69119e-06
7 *218:A *47:6 0.000140933
8 *238:B *239:A 0
9 *24:10 *239:A 0
*RES
1 *217:Y *47:6 11.4786 
2 *47:6 *239:A 21.1571 
3 *47:6 *218:B 9.3 
*END

*D_NET *48 0.00367126
*CONN
*I *237:C1 I *D sky130_fd_sc_hd__a211o_1
*I *222:A_N I *D sky130_fd_sc_hd__and4bb_1
*I *220:A_N I *D sky130_fd_sc_hd__and3b_1
*I *219:X O *D sky130_fd_sc_hd__and4_1
*CAP
1 *237:C1 0.000327966
2 *222:A_N 0.000274407
3 *220:A_N 0
4 *219:X 0.000129485
5 *48:21 0.000830422
6 *48:8 0.000357534
7 *222:A_N *223:B 2.60232e-05
8 *222:A_N *79:38 0.000408522
9 *237:C1 *237:A1 5.54478e-05
10 *237:C1 *52:10 0.000317782
11 *48:8 *195:A 0.000188586
12 *48:8 *195:B 3.57366e-05
13 *48:8 *220:B 1.96442e-05
14 *48:8 *74:77 4.88637e-05
15 *48:21 *220:B 0.000102197
16 *48:21 *223:A 0.000127246
17 *48:21 *231:B 5.20768e-05
18 *48:21 *79:38 7.80714e-06
19 *48:21 *79:40 1.65558e-05
20 *25:10 *48:8 0.000114661
21 *25:10 *48:21 0.000230297
*RES
1 *219:X *48:8 13.0321 
2 *48:8 *220:A_N 9.3 
3 *48:8 *48:21 15.1607 
4 *48:21 *222:A_N 15.3357 
5 *48:21 *237:C1 24.7821 
*END

*D_NET *49 0.000285523
*CONN
*I *223:A I *D sky130_fd_sc_hd__xor2_1
*I *220:X O *D sky130_fd_sc_hd__and3b_1
*CAP
1 *223:A 4.70263e-05
2 *220:X 4.70263e-05
3 *223:A *79:38 6.42242e-05
4 *48:21 *223:A 0.000127246
*RES
1 *220:X *223:A 29.2429 
*END

*D_NET *50 0.00158749
*CONN
*I *223:B I *D sky130_fd_sc_hd__xor2_1
*I *222:B_N I *D sky130_fd_sc_hd__and4bb_1
*I *221:Y O *D sky130_fd_sc_hd__xnor2_1
*CAP
1 *223:B 0.000227707
2 *222:B_N 0
3 *221:Y 0.000222411
4 *50:8 0.000450117
5 *223:B *79:38 0.000405727
6 *50:8 *232:B1 1.72894e-05
7 *50:8 *74:14 3.18676e-05
8 *50:8 *74:27 1.02821e-05
9 *50:8 *79:38 0.000196063
10 *222:A_N *223:B 2.60232e-05
*RES
1 *221:Y *50:8 13.55 
2 *50:8 *222:B_N 9.3 
3 *50:8 *223:B 14.2643 
*END

*D_NET *51 0.000433108
*CONN
*I *232:B1 I *D sky130_fd_sc_hd__a21o_1
*I *222:X O *D sky130_fd_sc_hd__and4bb_1
*CAP
1 *232:B1 0.000149009
2 *222:X 0.000149009
3 *232:B1 *74:14 3.34672e-05
4 *232:A1 *232:B1 8.06427e-05
5 *247:A *232:B1 0
6 *29:12 *232:B1 3.69047e-06
7 *50:8 *232:B1 1.72894e-05
*RES
1 *222:X *232:B1 30.4929 
*END

*D_NET *52 0.0020531
*CONN
*I *226:A I *D sky130_fd_sc_hd__nor2_1
*I *225:B1 I *D sky130_fd_sc_hd__o211a_1
*I *223:X O *D sky130_fd_sc_hd__xor2_1
*CAP
1 *226:A 2.61003e-05
2 *225:B1 0.000182889
3 *223:X 0.00027605
4 *52:10 0.00048504
5 *225:B1 *226:B 0.000154762
6 *226:A *55:8 2.89114e-05
7 *52:10 *233:A 5.33005e-05
8 *52:10 *237:A1 3.17148e-05
9 *52:10 *59:12 0.000401273
10 *237:C1 *52:10 0.000317782
11 *25:37 *225:B1 3.18676e-05
12 *33:12 *225:B1 8.18233e-06
13 *33:21 *225:B1 5.52302e-05
*RES
1 *223:X *52:10 20.9964 
2 *52:10 *225:B1 17.8536 
3 *52:10 *226:A 14.3357 
*END

*D_NET *53 0.000305648
*CONN
*I *226:B I *D sky130_fd_sc_hd__nor2_1
*I *224:X O *D sky130_fd_sc_hd__o21a_1
*CAP
1 *226:B 7.54428e-05
2 *224:X 7.54428e-05
3 *225:B1 *226:B 0.000154762
*RES
1 *224:X *226:B 29.5464 
*END

*D_NET *54 0.00103259
*CONN
*I *227:A I *D sky130_fd_sc_hd__nor2_1
*I *229:B I *D sky130_fd_sc_hd__nor3b_1
*I *225:X O *D sky130_fd_sc_hd__o211a_1
*CAP
1 *227:A 5.58906e-05
2 *229:B 0
3 *225:X 0.000288527
4 *54:8 0.000344418
5 *227:A *227:B 0.00010096
6 *54:8 *227:B 0
7 *204:A *54:8 0.000144773
8 *229:C_N *54:8 4.27935e-05
9 *34:8 *54:8 5.52238e-05
*RES
1 *225:X *54:8 14.3714 
2 *54:8 *229:B 9.3 
3 *54:8 *227:A 10.6571 
*END

*D_NET *55 0.00280388
*CONN
*I *235:A I *D sky130_fd_sc_hd__nor3_1
*I *234:A1 I *D sky130_fd_sc_hd__o21a_1
*I *227:B I *D sky130_fd_sc_hd__nor2_1
*I *226:Y O *D sky130_fd_sc_hd__nor2_1
*CAP
1 *235:A 0.00017548
2 *234:A1 0
3 *227:B 0.00022472
4 *226:Y 0.000677359
5 *55:23 0.000269025
6 *55:8 0.000995624
7 *227:B *230:A 2.27416e-05
8 *227:B *58:12 0.000141667
9 *235:A *236:A 5.52302e-05
10 *235:A *236:B 3.18676e-05
11 *235:A *58:12 1.60575e-05
12 *235:A *62:8 0
13 *55:23 *58:12 6.42338e-05
14 *55:23 *62:8 0
15 P[6] *235:A 0
16 *226:A *55:8 2.89114e-05
17 *227:A *227:B 0.00010096
18 *54:8 *227:B 0
*RES
1 *226:Y *55:8 21.7286 
2 *55:8 *227:B 19.1571 
3 *55:8 *55:23 1.64286 
4 *55:23 *234:A1 13.8 
5 *55:23 *235:A 16.8536 
*END

*D_NET *56 0.000438236
*CONN
*I *230:A I *D sky130_fd_sc_hd__xor2_1
*I *227:Y O *D sky130_fd_sc_hd__nor2_1
*CAP
1 *230:A 0.000207747
2 *227:Y 0.000207747
3 *227:B *230:A 2.27416e-05
4 *229:A *230:A 0
*RES
1 *227:Y *230:A 30.6 
*END

*D_NET *57 0.000696785
*CONN
*I *230:B I *D sky130_fd_sc_hd__xor2_1
*I *228:X O *D sky130_fd_sc_hd__a31o_1
*CAP
1 *230:B 0.000294759
2 *228:X 0.000294759
3 P[5] *230:B 0
4 *228:B1 *230:B 0.000107267
5 *229:A *230:B 0
*RES
1 *228:X *230:B 32.6179 
*END

*D_NET *58 0.00100407
*CONN
*I *235:B I *D sky130_fd_sc_hd__nor3_1
*I *234:A2 I *D sky130_fd_sc_hd__o21a_1
*I *229:Y O *D sky130_fd_sc_hd__nor3b_1
*CAP
1 *235:B 0
2 *234:A2 8.65702e-05
3 *229:Y 0.000229849
4 *58:12 0.00031642
5 *234:A2 *234:B1 5.7661e-06
6 *234:A2 *235:C 6.79507e-05
7 *234:A2 *236:A 2.03299e-05
8 *234:A2 *236:B 5.52238e-05
9 *227:B *58:12 0.000141667
10 *235:A *58:12 1.60575e-05
11 *55:23 *58:12 6.42338e-05
*RES
1 *229:Y *58:12 22.9071 
2 *58:12 *234:A2 11.5143 
3 *58:12 *235:B 9.3 
*END

*D_NET *59 0.00148226
*CONN
*I *233:A I *D sky130_fd_sc_hd__xor2_1
*I *237:A1 I *D sky130_fd_sc_hd__a211o_1
*I *231:X O *D sky130_fd_sc_hd__and3_1
*CAP
1 *233:A 4.8812e-05
2 *237:A1 0.000102146
3 *231:X 0.000268214
4 *59:12 0.000419172
5 *233:A *233:B 7.43578e-06
6 *237:A1 *233:B 9.47456e-05
7 *237:C1 *237:A1 5.54478e-05
8 *52:10 *233:A 5.33005e-05
9 *52:10 *237:A1 3.17148e-05
10 *52:10 *59:12 0.000401273
*RES
1 *231:X *59:12 23.7643 
2 *59:12 *237:A1 21.1571 
3 *59:12 *233:A 10.2464 
*END

*D_NET *60 0.00249077
*CONN
*I *233:B I *D sky130_fd_sc_hd__xor2_1
*I *237:A2 I *D sky130_fd_sc_hd__a211o_1
*I *232:X O *D sky130_fd_sc_hd__a21o_1
*CAP
1 *233:B 0.000177302
2 *237:A2 0
3 *232:X 0.000926885
4 *60:8 0.00110419
5 *233:B *237:B1 5.52238e-05
6 *60:8 *237:B1 7.09061e-05
7 *60:8 *74:14 1.92789e-05
8 P[7] *233:B 2.14658e-05
9 P[7] *60:8 1.33343e-05
10 *233:A *233:B 7.43578e-06
11 *237:A1 *233:B 9.47456e-05
*RES
1 *232:X *60:8 23.8179 
2 *60:8 *237:A2 9.3 
3 *60:8 *233:B 22.05 
*END

*D_NET *61 0.0010331
*CONN
*I *235:C I *D sky130_fd_sc_hd__nor3_1
*I *234:B1 I *D sky130_fd_sc_hd__o21a_1
*I *233:X O *D sky130_fd_sc_hd__xor2_1
*CAP
1 *235:C 5.60877e-05
2 *234:B1 2.03441e-05
3 *233:X 0.000256013
4 *61:6 0.000332445
5 *235:C *236:A 0.000195454
6 *61:6 *236:A 9.90431e-05
7 *234:A2 *234:B1 5.7661e-06
8 *234:A2 *235:C 6.79507e-05
*RES
1 *233:X *61:6 13.9429 
2 *61:6 *234:B1 9.72857 
3 *61:6 *235:C 11.4964 
*END

*D_NET *62 0.00225425
*CONN
*I *237:B1 I *D sky130_fd_sc_hd__a211o_1
*I *236:A I *D sky130_fd_sc_hd__nor2_1
*I *234:X O *D sky130_fd_sc_hd__o21a_1
*CAP
1 *237:B1 0.000518402
2 *236:A 0.000245912
3 *234:X 4.68159e-05
4 *62:8 0.000811129
5 *236:A *236:B 3.3495e-05
6 *237:B1 *254:A 5.71472e-05
7 P[7] *237:B1 4.51641e-05
8 *233:B *237:B1 5.52238e-05
9 *234:A2 *236:A 2.03299e-05
10 *235:A *236:A 5.52302e-05
11 *235:A *62:8 0
12 *235:C *236:A 0.000195454
13 *55:23 *62:8 0