*SPEF "ieee 1481-1999"
*DESIGN "SARSANPASOS_VENTAJA_RUIDO_e8"
*DATE "18:03:07 Tuesday September 16, 2025"
*VENDOR "The OpenROAD Project"
*PROGRAM "OpenROAD"
*VERSION "edf00dff99f6c40d67a30c0e22a8191c5d2ed9d6"
*DESIGN_FLOW "NAME_SCOPE LOCAL" "PIN_CAP NONE"
*DIVIDER /
*DELIMITER :
*BUS_DELIMITER []
*T_UNIT 1 NS
*C_UNIT 1 PF
*R_UNIT 1 OHM
*L_UNIT 1 HENRY

*NAME_MAP
*1 A[0]
*2 A[1]
*3 B[0]
*4 B[1]
*5 P[0]
*6 P[1]
*7 P[2]
*8 P[3]
*11 _0_
*12 net1
*13 net2
*14 net3
*15 net4
*16 net5
*17 net6
*18 net7
*19 net8
*20 FILLER_0_15
*21 FILLER_0_27
*22 FILLER_0_29
*23 FILLER_0_3
*24 FILLER_0_41
*25 FILLER_0_53
*26 FILLER_0_57
*27 FILLER_0_69
*28 FILLER_1_15
*29 FILLER_1_27
*30 FILLER_1_3
*31 FILLER_1_39
*32 FILLER_1_51
*33 FILLER_1_55
*34 FILLER_1_57
*35 FILLER_1_69
*36 FILLER_2_18
*37 FILLER_2_26
*38 FILLER_2_29
*39 FILLER_2_41
*40 FILLER_2_53
*41 FILLER_2_6
*42 FILLER_2_65
*43 FILLER_2_77
*44 FILLER_3_15
*45 FILLER_3_27
*46 FILLER_3_3
*47 FILLER_3_39
*48 FILLER_3_51
*49 FILLER_3_55
*50 FILLER_3_57
*51 FILLER_3_69
*52 FILLER_4_19
*53 FILLER_4_27
*54 FILLER_4_29
*55 FILLER_4_41
*56 FILLER_4_53
*57 FILLER_4_65
*58 FILLER_4_7
*59 FILLER_4_77
*60 FILLER_5_10
*61 FILLER_5_18
*62 FILLER_5_22
*63 FILLER_5_35
*64 FILLER_5_47
*65 FILLER_5_55
*66 FILLER_5_57
*67 FILLER_5_6
*68 FILLER_5_69
*69 FILLER_6_18
*70 FILLER_6_24
*71 FILLER_6_29
*72 FILLER_6_41
*73 FILLER_6_53
*74 FILLER_6_6
*75 FILLER_6_65
*76 FILLER_7_16
*77 FILLER_7_28
*78 FILLER_7_40
*79 FILLER_7_52
*80 FILLER_7_57
*81 FILLER_7_69
*82 FILLER_7_7
*83 FILLER_8_15
*84 FILLER_8_27
*85 FILLER_8_29
*86 FILLER_8_3
*87 FILLER_8_41
*88 FILLER_8_53
*89 FILLER_8_65
*90 FILLER_8_77
*91 FILLER_9_18
*92 FILLER_9_26
*93 FILLER_9_29
*94 FILLER_9_41
*95 FILLER_9_53
*96 FILLER_9_57
*97 FILLER_9_6
*98 FILLER_9_69
*99 PHY_EDGE_ROW_0_Left_10
*100 PHY_EDGE_ROW_0_Right_0
*101 PHY_EDGE_ROW_1_Left_11
*102 PHY_EDGE_ROW_1_Right_1
*103 PHY_EDGE_ROW_2_Left_12
*104 PHY_EDGE_ROW_2_Right_2
*105 PHY_EDGE_ROW_3_Left_13
*106 PHY_EDGE_ROW_3_Right_3
*107 PHY_EDGE_ROW_4_Left_14
*108 PHY_EDGE_ROW_4_Right_4
*109 PHY_EDGE_ROW_5_Left_15
*110 PHY_EDGE_ROW_5_Right_5
*111 PHY_EDGE_ROW_6_Left_16
*112 PHY_EDGE_ROW_6_Right_6
*113 PHY_EDGE_ROW_7_Left_17
*114 PHY_EDGE_ROW_7_Right_7
*115 PHY_EDGE_ROW_8_Left_18
*116 PHY_EDGE_ROW_8_Right_8
*117 PHY_EDGE_ROW_9_Left_19
*118 PHY_EDGE_ROW_9_Right_9
*119 TAP_TAPCELL_ROW_0_20
*120 TAP_TAPCELL_ROW_0_21
*121 TAP_TAPCELL_ROW_1_22
*122 TAP_TAPCELL_ROW_2_23
*123 TAP_TAPCELL_ROW_3_24
*124 TAP_TAPCELL_ROW_4_25
*125 TAP_TAPCELL_ROW_5_26
*126 TAP_TAPCELL_ROW_6_27
*127 TAP_TAPCELL_ROW_7_28
*128 TAP_TAPCELL_ROW_8_29
*129 TAP_TAPCELL_ROW_9_30
*130 TAP_TAPCELL_ROW_9_31
*131 _1_
*132 _2_
*133 _3_
*134 _4_
*135 _5_
*136 input1
*137 input2
*138 input3
*139 input4
*140 output5
*141 output6
*142 output7
*143 output8

*PORTS
A[0] I
A[1] I
B[0] I
B[1] I
P[0] O
P[1] O
P[2] O
P[3] O

*D_NET *1 0.000731415
*CONN
*P A[0] I
*I *136:A I *D sky130_fd_sc_hd__buf_1
*CAP
1 A[0] 0.000355085
2 *136:A 0.000355085
3 *136:A P[0] 2.12457e-05
4 *136:A *137:A 0
*RES
1 A[0] *136:A 49.5439 
*END

*D_NET *2 0.000568138
*CONN
*P A[1] I
*I *137:A I *D sky130_fd_sc_hd__clkbuf_1
*CAP
1 A[1] 0.000254489
2 *137:A 0.000254489
3 *137:A P[0] 1.5289e-05
4 *137:A *3:17 2.79122e-05
5 *137:A *5:14 1.59585e-05
6 *136:A *137:A 0
*RES
1 A[1] *137:A 47.7832 
*END

*D_NET *3 0.00071699
*CONN
*P B[0] I
*I *138:A I *D sky130_fd_sc_hd__buf_1
*CAP
1 B[0] 0.000330094
2 *138:A 0
3 *3:17 0.000330094
4 *3:17 P[3] 2.88889e-05
5 *3:17 *19:12 0
6 *137:A *3:17 2.79122e-05
*RES
1 B[0] *3:17 27.8627 
2 *3:17 *138:A 23 
*END

*D_NET *4 0.000666589
*CONN
*P B[1] I
*I *139:A I *D sky130_fd_sc_hd__clkbuf_1
*CAP
1 B[1] 0.000320228
2 *139:A 0
3 *4:17 0.000320228
4 *4:17 P[3] 2.61329e-05
*RES
1 B[1] *4:17 27.1584 
2 *4:17 *139:A 23 
*END

*D_NET *5 0.000762608
*CONN
*P P[0] O
*I *140:X O *D sky130_fd_sc_hd__buf_2
*CAP
1 P[0] 7.65184e-05
2 *140:X 0.000278539
3 *5:14 0.000355058
4 *136:A P[0] 2.12457e-05
5 *137:A P[0] 1.5289e-05
6 *137:A *5:14 1.59585e-05
*RES
1 *140:X *5:14 49.9 
2 *5:14 P[0] 0.382667 
*END

*D_NET *6 0.000520154
*CONN
*P P[1] O
*I *141:X O *D sky130_fd_sc_hd__buf_2
*CAP
1 P[1] 0.000210018
2 *141:X 0.000210018
3 P[1] P[2] 8.73764e-05
4 P[1] *17:12 1.27424e-05
*RES
1 *141:X P[1] 47.1648 
*END

*D_NET *7 0.00061075
*CONN
*P P[2] O
*I *142:X O *D sky130_fd_sc_hd__buf_2
*CAP
1 P[2] 0.000261687
2 *142:X 0.000261687
3 P[1] P[2] 8.73764e-05
*RES
1 *142:X P[2] 47.8691 
*END

*D_NET *8 0.000829325
*CONN
*P P[3] O
*I *143:X O *D sky130_fd_sc_hd__buf_2
*CAP
1 P[3] 9.33412e-05
2 *143:X 0.00029381
3 *8:10 0.000387151
4 *3:17 P[3] 2.88889e-05
5 *4:17 P[3] 2.61329e-05
*RES
1 *143:X *8:10 42.5054 
2 *8:10 P[3] 8.4816 
*END

*D_NET *11 0.001154
*CONN
*I *134:C I *D sky130_fd_sc_hd__and3_1
*I *131:Y O *D sky130_fd_sc_hd__nand2_1
*CAP
1 *134:C 0.000293897
2 *131:Y 8.2544e-05
3 *11:8 0.000376441
4 *134:C *134:A 0.000143655
5 *134:C *15:27 0.000230604
6 *134:C *17:6 2.68634e-05
7 *11:8 *12:12 0
*RES
1 *131:Y *11:8 39.2014 
2 *11:8 *134:C 42.9921 
*END

*D_NET *12 0.004098
*CONN
*I *131:B I *D sky130_fd_sc_hd__nand2_1
*I *132:D I *D sky130_fd_sc_hd__and4_1
*I *133:B I *D sky130_fd_sc_hd__and3b_1
*I *136:X O *D sky130_fd_sc_hd__buf_1
*CAP
1 *131:B 0.000143659
2 *132:D 8.31389e-05
3 *133:B 0.000347121
4 *136:X 0.00048147
5 *12:12 0.00057031
6 *12:10 0.00064957
7 *12:8 0.000847332
8 *131:B *131:A 0.00014196
9 *132:D *133:A_N 2.4754e-05
10 *132:D *134:B 0.000181125
11 *132:D *14:6 9.75779e-05
12 *132:D *15:27 5.3304e-05
13 *133:B *133:A_N 0.000128401
14 *133:B *134:B 7.06229e-05
15 *133:B *15:10 3.92407e-05
16 *133:B *15:27 8.62783e-05
17 *12:10 *135:A 7.4878e-05
18 *12:12 *135:A 1.19796e-05
19 *12:12 *14:10 4.06408e-05
20 *12:12 *15:27 2.46345e-05
21 *11:8 *12:12 0
*RES
1 *136:X *12:8 44.3386 
2 *12:8 *12:10 7.54 
3 *12:10 *12:12 2.61 
4 *12:12 *133:B 43.9864 
5 *12:12 *132:D 40.5271 
6 *12:10 *131:B 41.0243 
*END

*D_NET *13 0.00279854
*CONN
*I *134:B I *D sky130_fd_sc_hd__and3_1
*I *132:C I *D sky130_fd_sc_hd__and4_1
*I *137:X O *D sky130_fd_sc_hd__clkbuf_1
*CAP
1 *134:B 0.000296776
2 *132:C 0
3 *137:X 0.00045074
4 *13:12 0.000296776
5 *13:10 0.00045074
6 *134:B *133:A_N 0.000399291
7 *134:B *134:A 5.27224e-05
8 *134:B *15:27 0.000357983
9 *134:B *17:6 0.00014428
10 *13:10 *14:10 8.4047e-05
11 *13:10 *15:27 1.34354e-05
12 *132:D *134:B 0.000181125
13 *133:B *134:B 7.06229e-05
*RES
1 *137:X *13:10 44.3386 
2 *13:10 *13:12 15 
3 *13:12 *132:C 23 
4 *13:12 *134:B 33.0671 
*END

*D_NET *14 0.0019697
*CONN
*I *132:B I *D sky130_fd_sc_hd__and4_1
*I *135:A I *D sky130_fd_sc_hd__clkbuf_1
*I *131:A I *D sky130_fd_sc_hd__nand2_1
*I *138:X O *D sky130_fd_sc_hd__buf_1
*CAP
1 *132:B 0
2 *135:A 0.000134711
3 *131:A 0.000152481
4 *138:X 0.000325685
5 *14:10 0.000368599
6 *14:6 0.000407092
7 *14:6 *133:A_N 3.53115e-05
8 *14:6 *19:12 9.01041e-05
9 *14:10 *15:27 4.6318e-06
10 *131:B *131:A 0.00014196
11 *132:D *14:6 9.75779e-05
12 *12:10 *135:A 7.4878e-05
13 *12:12 *135:A 1.19796e-05
14 *12:12 *14:10 4.06408e-05
15 *13:10 *14:10 8.4047e-05
*RES
1 *138:X *14:6 27.9093 
2 *14:6 *14:10 16.9057 
3 *14:10 *131:A 41.0036 
4 *14:10 *135:A 41.3143 
5 *14:6 *132:B 23 
*END

*D_NET *15 0.00323339
*CONN
*I *134:A I *D sky130_fd_sc_hd__and3_1
*I *133:C I *D sky130_fd_sc_hd__and3b_1
*I *132:A I *D sky130_fd_sc_hd__and4_1
*I *139:X O *D sky130_fd_sc_hd__clkbuf_1
*CAP
1 *134:A 2.10809e-05
2 *133:C 0
3 *132:A 0
4 *139:X 0.000441008
5 *15:27 0.000286562
6 *15:10 0.000639848
7 *15:8 0.000815374
8 *134:A *17:6 2.30292e-05
9 *132:D *15:27 5.3304e-05
10 *133:B *15:10 3.92407e-05
11 *133:B *15:27 8.62783e-05
12 *134:B *134:A 5.27224e-05
13 *134:B *15:27 0.000357983
14 *134:C *134:A 0.000143655
15 *134:C *15:27 0.000230604
16 *12:12 *15:27 2.46345e-05
17 *13:10 *15:27 1.34354e-05
18 *14:10 *15:27 4.6318e-06
*RES
1 *139:X *15:8 43.8621 
2 *15:8 *15:10 7.18786 
3 *15:10 *132:A 38 
4 *15:10 *15:27 22.105 
5 *15:27 *133:C 23 
6 *15:27 *134:A 24.5743 
*END

*D_NET *16 0.000454896
*CONN
*I *140:A I *D sky130_fd_sc_hd__buf_2
*I *135:X O *D sky130_fd_sc_hd__clkbuf_1
*CAP
1 *140:A 0
2 *135:X 0.000227448
3 *16:8 0.000227448
*RES
1 *135:X *16:8 27.3293 
2 *16:8 *140:A 23 
*END

*D_NET *17 0.00335776
*CONN
*I *141:A I *D sky130_fd_sc_hd__buf_2
*I *133:X O *D sky130_fd_sc_hd__and3b_1
*CAP
1 *141:A 0
2 *133:X 0.00103791
3 *17:12 0.000178182
4 *17:6 0.0012161
5 *17:6 *18:10 0.000718648
6 P[1] *17:12 1.27424e-05
7 *134:A *17:6 2.30292e-05
8 *134:B *17:6 0.00014428
9 *134:C *17:6 2.68634e-05
*RES
1 *133:X *17:6 46.0136 
2 *17:6 *17:12 33.3143 
3 *17:12 *141:A 23 
*END

*D_NET *18 0.00308082
*CONN
*I *142:A I *D sky130_fd_sc_hd__buf_2
*I *134:X O *D sky130_fd_sc_hd__and3_1
*CAP
1 *142:A 0
2 *134:X 0.00118109
3 *18:10 0.00118109
4 *17:6 *18:10 0.000718648
*RES
1 *134:X *18:10 44.6257 
2 *18:10 *142:A 23 
*END

*D_NET *19 0.00155093
*CONN
*I *133:A_N I *D sky130_fd_sc_hd__and3b_1
*I *143:A I *D sky130_fd_sc_hd__buf_2
*I *132:X O *D sky130_fd_sc_hd__and4_1
*CAP
1 *133:A_N 0.000173261
2 *143:A 0
3 *132:X 0
4 *19:12 0.000263271
5 *19:4 0.000436532
6 *132:D *133:A_N 2.4754e-05
7 *133:B *133:A_N 0.000128401
8 *134:B *133:A_N 0.000399291
9 *3:17 *19:12 0
10 *14:6 *133:A_N 3.53115e-05
11 *14:6 *19:12 9.01041e-05
*RES
1 *132:X *19:4 23 
2 *19:4 *19:12 35.4893 
3 *19:12 *143:A 23 
4 *19:4 *133:A_N 28.8621 
*END
