*SPEF "ieee 1481-1999"
*DESIGN "SARSANSTEPS_VENTAJA_e7"
*DATE "11:27:40 Friday September 12, 2025"
*VENDOR "The OpenROAD Project"
*PROGRAM "OpenROAD"
*VERSION "edf00dff99f6c40d67a30c0e22a8191c5d2ed9d6"
*DESIGN_FLOW "NAME_SCOPE LOCAL" "PIN_CAP NONE"
*DIVIDER /
*DELIMITER :
*BUS_DELIMITER []
*T_UNIT 1 NS
*C_UNIT 1 PF
*R_UNIT 1 OHM
*L_UNIT 1 HENRY

*NAME_MAP
*1 A[0]
*2 A[1]
*3 B[0]
*4 B[1]
*5 P[0]
*6 P[1]
*7 P[2]
*8 P[3]
*11 _00_
*12 _01_
*13 _02_
*14 _03_
*15 net1
*16 net2
*17 net3
*18 net4
*19 net5
*20 net6
*21 net7
*22 net8
*23 FILLER_0_15
*24 FILLER_0_27
*25 FILLER_0_29
*26 FILLER_0_3
*27 FILLER_0_41
*28 FILLER_0_49
*29 FILLER_0_57
*30 FILLER_0_69
*31 FILLER_1_15
*32 FILLER_1_27
*33 FILLER_1_3
*34 FILLER_1_39
*35 FILLER_1_52
*36 FILLER_1_57
*37 FILLER_1_69
*38 FILLER_2_15
*39 FILLER_2_27
*40 FILLER_2_29
*41 FILLER_2_3
*42 FILLER_2_41
*43 FILLER_2_53
*44 FILLER_2_65
*45 FILLER_2_77
*46 FILLER_3_15
*47 FILLER_3_27
*48 FILLER_3_3
*49 FILLER_3_39
*50 FILLER_3_51
*51 FILLER_3_55
*52 FILLER_3_57
*53 FILLER_3_69
*54 FILLER_4_15
*55 FILLER_4_27
*56 FILLER_4_29
*57 FILLER_4_3
*58 FILLER_4_41
*59 FILLER_4_53
*60 FILLER_4_65
*61 FILLER_4_77
*62 FILLER_5_13
*63 FILLER_5_21
*64 FILLER_5_30
*65 FILLER_5_42
*66 FILLER_5_55
*67 FILLER_5_57
*68 FILLER_5_68
*69 FILLER_5_80
*70 FILLER_6_18
*71 FILLER_6_36
*72 FILLER_6_48
*73 FILLER_6_59
*74 FILLER_6_6
*75 FILLER_6_71
*76 FILLER_7_19
*77 FILLER_7_31
*78 FILLER_7_43
*79 FILLER_7_55
*80 FILLER_7_57
*81 FILLER_7_69
*82 FILLER_7_7
*83 FILLER_7_77
*84 FILLER_8_15
*85 FILLER_8_27
*86 FILLER_8_29
*87 FILLER_8_3
*88 FILLER_8_41
*89 FILLER_8_50
*90 FILLER_8_62
*91 FILLER_8_74
*92 FILLER_8_80
*93 FILLER_9_15
*94 FILLER_9_27
*95 FILLER_9_29
*96 FILLER_9_3
*97 FILLER_9_41
*98 FILLER_9_49
*99 FILLER_9_57
*100 FILLER_9_69
*101 PHY_EDGE_ROW_0_Left_10
*102 PHY_EDGE_ROW_0_Right_0
*103 PHY_EDGE_ROW_1_Left_11
*104 PHY_EDGE_ROW_1_Right_1
*105 PHY_EDGE_ROW_2_Left_12
*106 PHY_EDGE_ROW_2_Right_2
*107 PHY_EDGE_ROW_3_Left_13
*108 PHY_EDGE_ROW_3_Right_3
*109 PHY_EDGE_ROW_4_Left_14
*110 PHY_EDGE_ROW_4_Right_4
*111 PHY_EDGE_ROW_5_Left_15
*112 PHY_EDGE_ROW_5_Right_5
*113 PHY_EDGE_ROW_6_Left_16
*114 PHY_EDGE_ROW_6_Right_6
*115 PHY_EDGE_ROW_7_Left_17
*116 PHY_EDGE_ROW_7_Right_7
*117 PHY_EDGE_ROW_8_Left_18
*118 PHY_EDGE_ROW_8_Right_8
*119 PHY_EDGE_ROW_9_Left_19
*120 PHY_EDGE_ROW_9_Right_9
*121 TAP_TAPCELL_ROW_0_20
*122 TAP_TAPCELL_ROW_0_21
*123 TAP_TAPCELL_ROW_1_22
*124 TAP_TAPCELL_ROW_2_23
*125 TAP_TAPCELL_ROW_3_24
*126 TAP_TAPCELL_ROW_4_25
*127 TAP_TAPCELL_ROW_5_26
*128 TAP_TAPCELL_ROW_6_27
*129 TAP_TAPCELL_ROW_7_28
*130 TAP_TAPCELL_ROW_8_29
*131 TAP_TAPCELL_ROW_9_30
*132 TAP_TAPCELL_ROW_9_31
*133 _04_
*134 _05_
*135 _06_
*136 _07_
*137 _08_
*138 _09_
*139 _10_
*140 _11_
*141 input1
*142 input2
*143 input3
*144 input4
*145 output5
*146 output6
*147 output7
*148 output8

*PORTS
A[0] I
A[1] I
B[0] I
B[1] I
P[0] O
P[1] O
P[2] O
P[3] O

*D_NET *1 0.000686118
*CONN
*P A[0] I
*I *141:A I *D sky130_fd_sc_hd__buf_1
*CAP
1 A[0] 0.000343059
2 *141:A 0.000343059
3 *141:A P[3] 0
*RES
1 A[0] *141:A 49.1918 
*END

*D_NET *2 0.000489415
*CONN
*P A[1] I
*I *142:A I *D sky130_fd_sc_hd__buf_1
*CAP
1 A[1] 0.000208628
2 *142:A 0.000208628
3 *142:A P[3] 7.21596e-05
*RES
1 A[1] *142:A 47.4311 
*END

*D_NET *3 0.000690822
*CONN
*P B[0] I
*I *143:A I *D sky130_fd_sc_hd__dlymetal6s2s_1
*CAP
1 B[0] 0.000331455
2 *143:A 0
3 *3:17 0.000331455
4 *3:17 *144:A 2.79122e-05
*RES
1 B[0] *3:17 27.5105 
2 *3:17 *143:A 23 
*END

*D_NET *4 0.000565937
*CONN
*P B[1] I
*I *144:A I *D sky130_fd_sc_hd__buf_1
*CAP
1 B[1] 0.000253389
2 *144:A 0.000253389
3 *144:A P[1] 1.5289e-05
4 *144:A *6:14 1.59585e-05
5 *3:17 *144:A 2.79122e-05
*RES
1 B[1] *144:A 47.7832 
*END

*D_NET *5 0.00100658
*CONN
*P P[0] O
*I *145:X O *D sky130_fd_sc_hd__buf_2
*CAP
1 P[0] 0.000503292
2 *145:X 0.000503292
*RES
1 *145:X P[0] 47.57 
*END

*D_NET *6 0.000761479
*CONN
*P P[1] O
*I *146:X O *D sky130_fd_sc_hd__buf_2
*CAP
1 P[1] 8.65766e-05
2 *146:X 0.000278539
3 *6:14 0.000365116
4 *144:A P[1] 1.5289e-05
5 *144:A *6:14 1.59585e-05
*RES
1 *146:X *6:14 49.9 
2 *6:14 P[1] 0.382667 
*END

*D_NET *7 0.00100219
*CONN
*P P[2] O
*I *147:X O *D sky130_fd_sc_hd__buf_2
*CAP
1 P[2] 0.000501094
2 *147:X 0.000501094
*RES
1 *147:X P[2] 48.9786 
*END

*D_NET *8 0.000523783
*CONN
*P P[3] O
*I *148:X O *D sky130_fd_sc_hd__buf_2
*CAP
1 P[3] 0.00021944
2 *148:X 0.00021944
3 P[3] *22:10 1.27424e-05
4 *141:A P[3] 0
5 *142:A P[3] 7.21596e-05
*RES
1 *148:X P[3] 47.1648 
*END

*D_NET *11 0.00114799
*CONN
*I *138:B1 I *D sky130_fd_sc_hd__o31a_1
*I *134:X O *D sky130_fd_sc_hd__mux2_1
*CAP
1 *138:B1 0
2 *134:X 0.000481155
3 *11:10 0.000481155
4 *11:10 *12:10 4.58924e-05
5 *11:10 *17:17 0.000139789
*RES
1 *134:X *11:10 45.7679 
2 *11:10 *138:B1 38 
*END

*D_NET *12 0.000394692
*CONN
*I *138:A1 I *D sky130_fd_sc_hd__o31a_1
*I *135:X O *D sky130_fd_sc_hd__and2b_1
*CAP
1 *138:A1 0
2 *135:X 0.000159083
3 *12:10 0.000159083
4 *12:10 *17:17 3.06338e-05
5 *12:10 *18:16 0
6 *11:10 *12:10 4.58924e-05
*RES
1 *135:X *12:10 41.0036 
2 *12:10 *138:A1 38 
*END

*D_NET *13 0.00186464
*CONN
*I *138:A2 I *D sky130_fd_sc_hd__o31a_1
*I *139:A1 I *D sky130_fd_sc_hd__o211a_1
*I *136:X O *D sky130_fd_sc_hd__and2b_1
*CAP
1 *138:A2 0
2 *139:A1 0
3 *136:X 0.000104109
4 *13:14 0.00061112
5 *13:6 0.000715229
6 *13:6 *18:25 0.000231229
7 *13:14 *20:8 5.61311e-05
8 *13:14 *21:10 0.000146822
*RES
1 *136:X *13:6 25.5271 
2 *13:6 *13:14 41.4136 
3 *13:14 *139:A1 23 
4 *13:6 *138:A2 23 
*END

*D_NET *14 0.00279113
*CONN
*I *139:A2 I *D sky130_fd_sc_hd__o211a_1
*I *138:A3 I *D sky130_fd_sc_hd__o31a_1
*I *137:Y O *D sky130_fd_sc_hd__nand2_1
*CAP
1 *139:A2 0
2 *138:A3 0.000419676
3 *137:Y 0.000370871
4 *14:21 0.000175348
5 *14:6 0.000965895
6 *138:A3 *18:8 0
7 *138:A3 *18:25 0.000328661
8 *14:6 *137:A 0.000137613
9 *14:6 *137:B 1.32939e-05
10 *14:6 *18:25 2.18409e-05
11 *14:21 *139:B1 0.00035793
*RES
1 *137:Y *14:6 28.3857 
2 *14:6 *138:A3 29.8357 
3 *14:6 *14:21 34.7229 
4 *14:21 *139:A2 23 
*END

*D_NET *15 0.00555775
*CONN
*I *140:B I *D sky130_fd_sc_hd__and4_1
*I *134:A0 I *D sky130_fd_sc_hd__mux2_1
*I *137:A I *D sky130_fd_sc_hd__nand2_1
*I *133:B I *D sky130_fd_sc_hd__xnor2_1
*I *141:X O *D sky130_fd_sc_hd__buf_1
*CAP
1 *140:B 2.205e-05
2 *134:A0 0
3 *137:A 0.000183252
4 *133:B 0.000434614
5 *141:X 0.000716663
6 *15:18 0.000642308
7 *15:14 0.000120522
8 *15:12 0.00011813
9 *15:10 0.000716663
10 *133:B *17:23 0.000817828
11 *137:A *137:B 0.000315857
12 *137:A *139:C1 2.55642e-05
13 *137:A *140:C 0.000169683
14 *137:A *16:20 0.000116314
15 *140:B *140:C 5.50106e-05
16 *15:14 *140:A 0.00023032
17 *15:14 *140:C 0.000533224
18 *15:14 *17:30 4.95081e-05
19 *15:18 *140:C 9.84851e-05
20 *15:18 *17:30 5.41385e-05
21 *14:6 *137:A 0.000137613
*RES
1 *141:X *15:10 48.0257 
2 *15:10 *15:12 15 
3 *15:12 *15:14 5.86214 
4 *15:14 *15:18 16.0979 
5 *15:18 *133:B 49.7657 
6 *15:18 *137:A 44.5664 
7 *15:14 *134:A0 23 
8 *15:12 *140:B 23.6214 
*END

*D_NET *16 0.00502592
*CONN
*I *140:D I *D sky130_fd_sc_hd__and4_1
*I *134:A1 I *D sky130_fd_sc_hd__mux2_1
*I *139:C1 I *D sky130_fd_sc_hd__o211a_1
*I *137:B I *D sky130_fd_sc_hd__nand2_1
*I *142:X O *D sky130_fd_sc_hd__buf_1
*CAP
1 *140:D 0.000100065
2 *134:A1 0
3 *139:C1 0.000256395
4 *137:B 0.000218352
5 *142:X 0.000818879
6 *16:20 0.000609286
7 *16:14 0.000441221
8 *16:12 0.000406747
9 *16:10 0.000818879
10 *139:C1 *139:B1 0.000207437
11 *139:C1 *140:C 1.22803e-05
12 *140:D *140:C 8.6949e-05
13 *16:14 *140:C 0.000478219
14 *16:20 *140:C 0.00010018
15 *137:A *137:B 0.000315857
16 *137:A *139:C1 2.55642e-05
17 *137:A *16:20 0.000116314
18 *14:6 *137:B 1.32939e-05
*RES
1 *142:X *16:10 49.7864 
2 *16:10 *16:12 15 
3 *16:12 *16:14 5.38571 
4 *16:14 *16:20 17.6514 
5 *16:20 *137:B 42.93 
6 *16:20 *139:C1 44.1314 
7 *16:14 *134:A1 23 
8 *16:12 *140:D 24.5743 
*END

*D_NET *17 0.00530069
*CONN
*I *136:A_N I *D sky130_fd_sc_hd__and2b_1
*I *140:A I *D sky130_fd_sc_hd__and4_1
*I *134:S I *D sky130_fd_sc_hd__mux2_1
*I *133:A I *D sky130_fd_sc_hd__xnor2_1
*I *135:B I *D sky130_fd_sc_hd__and2b_1
*I *143:X O *D sky130_fd_sc_hd__dlymetal6s2s_1
*CAP
1 *136:A_N 0
2 *140:A 0.000181647
3 *134:S 2.34823e-05
4 *133:A 0
5 *135:B 0
6 *143:X 0.000418823
7 *17:50 0.000110003
8 *17:30 0.000330797
9 *17:23 0.000378258
10 *17:17 0.00102624
11 *17:10 0.000706973
12 *17:6 0.000713484
13 *17:17 *140:C 3.7122e-06
14 *17:30 *140:C 1.21972e-05
15 *17:50 *18:16 7.28526e-05
16 *133:B *17:23 0.000817828
17 *11:10 *17:17 0.000139789
18 *12:10 *17:17 3.06338e-05
19 *15:14 *140:A 0.00023032
20 *15:14 *17:30 4.95081e-05
21 *15:18 *17:30 5.41385e-05
*RES
1 *143:X *17:6 30.7679 
2 *17:6 *17:10 3.37643 
3 *17:10 *135:B 23 
4 *17:10 *17:17 9.67357 
5 *17:17 *17:23 40.7093 
6 *17:23 *133:A 23 
7 *17:17 *17:30 2.52714 
8 *17:30 *134:S 23.4971 
9 *17:30 *140:A 27.4329 
10 *17:6 *17:50 32.2579 
11 *17:50 *136:A_N 23 
*END

*D_NET *18 0.00593595
*CONN
*I *136:B I *D sky130_fd_sc_hd__and2b_1
*I *139:B1 I *D sky130_fd_sc_hd__o211a_1
*I *140:C I *D sky130_fd_sc_hd__and4_1
*I *135:A_N I *D sky130_fd_sc_hd__and2b_1
*I *144:X O *D sky130_fd_sc_hd__buf_1
*CAP
1 *136:B 0
2 *139:B1 0.000144608
3 *140:C 0.000272286
4 *135:A_N 0
5 *144:X 0.000576272
6 *18:25 0.000825811
7 *18:16 0.000157463
8 *18:8 0.000589863
9 *18:6 0.000599755
10 *137:A *140:C 0.000169683
11 *138:A3 *18:8 0
12 *138:A3 *18:25 0.000328661
13 *139:C1 *139:B1 0.000207437
14 *139:C1 *140:C 1.22803e-05
15 *140:B *140:C 5.50106e-05
16 *140:D *140:C 8.6949e-05
17 *12:10 *18:16 0
18 *13:6 *18:25 0.000231229
19 *14:6 *18:25 2.18409e-05
20 *14:21 *139:B1 0.00035793
21 *15:14 *140:C 0.000533224
22 *15:18 *140:C 9.84851e-05
23 *16:14 *140:C 0.000478219
24 *16:20 *140:C 0.00010018
25 *17:17 *140:C 3.7122e-06
26 *17:30 *140:C 1.21972e-05
27 *17:50 *18:16 7.28526e-05
*RES
1 *144:X *18:6 33.15 
2 *18:6 *18:8 0.497143 
3 *18:8 *18:16 33.7079 
4 *18:16 *135:A_N 23 
5 *18:8 *18:25 25.15 
6 *18:25 *140:C 48.8543 
7 *18:25 *139:B1 43.4271 
8 *18:6 *136:B 23 
*END

*D_NET *19 0.000373337
*CONN
*I *145:A I *D sky130_fd_sc_hd__buf_2
*I *133:Y O *D sky130_fd_sc_hd__xnor2_1
*CAP
1 *145:A 0
2 *133:Y 0.000186668
3 *19:10 0.000186668
*RES
1 *133:Y *19:10 41.2314 
2 *19:10 *145:A 38 
*END

*D_NET *20 0.00147301
*CONN
*I *146:A I *D sky130_fd_sc_hd__buf_2
*I *138:X O *D sky130_fd_sc_hd__o31a_1
*CAP
1 *146:A 0.000606679
2 *138:X 0.000101759
3 *20:8 0.000708437
4 *13:14 *20:8 5.61311e-05
*RES
1 *138:X *20:8 40.2579 
2 *20:8 *146:A 49.1029 
*END

*D_NET *21 0.000981122
*CONN
*I *147:A I *D sky130_fd_sc_hd__buf_2
*I *139:X O *D sky130_fd_sc_hd__o211a_1
*CAP
1 *147:A 0
2 *139:X 0.00041715
3 *21:10 0.00041715
4 *13:14 *21:10 0.000146822
*RES
1 *139:X *21:10 45.8714 
2 *21:10 *147:A 38 
*END

*D_NET *22 0.000965321
*CONN
*I *148:A I *D sky130_fd_sc_hd__buf_2
*I *140:X O *D sky130_fd_sc_hd__and4_1
*CAP
1 *148:A 0
2 *140:X 0.000476289
3 *22:10 0.000476289
4 P[3] *22:10 1.27424e-05
*RES
1 *140:X *22:10 44.815 
2 *22:10 *148:A 38 
*END
