*SPEF "ieee 1481-1999"
*DESIGN "mult4_SarsaNada_e6_SARSA_RUIDO_e9_SARSA_RUIDO_e9_SARSA_RUIDO_e9"
*DATE "14:36:52 Tuesday September 16, 2025"
*VENDOR "The OpenROAD Project"
*PROGRAM "OpenROAD"
*VERSION "edf00dff99f6c40d67a30c0e22a8191c5d2ed9d6"
*DESIGN_FLOW "NAME_SCOPE LOCAL" "PIN_CAP NONE"
*DIVIDER /
*DELIMITER :
*BUS_DELIMITER []
*T_UNIT 1 NS
*C_UNIT 1 PF
*R_UNIT 1 OHM
*L_UNIT 1 HENRY

*NAME_MAP
*1 A[0]
*2 A[1]
*3 A[2]
*4 A[3]
*5 B[0]
*6 B[1]
*7 B[2]
*8 B[3]
*9 P[0]
*10 P[1]
*11 P[2]
*12 P[3]
*13 P[4]
*14 P[5]
*15 P[6]
*16 P[7]
*19 _00_
*20 _01_
*21 _02_
*22 _03_
*23 _04_
*24 _05_
*25 _06_
*26 _07_
*27 _08_
*28 _09_
*29 _10_
*30 _11_
*31 _12_
*32 _13_
*33 _14_
*34 _15_
*35 _16_
*36 _17_
*37 _18_
*38 _19_
*39 _20_
*40 _21_
*41 _22_
*42 _23_
*43 _24_
*44 _25_
*45 _26_
*46 _27_
*47 _28_
*48 _29_
*49 _30_
*50 _31_
*51 _32_
*52 _33_
*53 _34_
*54 _35_
*55 _36_
*56 mul_ll\.pp1
*57 net1
*58 net10
*59 net11
*60 net12
*61 net13
*62 net14
*63 net15
*64 net16
*65 net2
*66 net3
*67 net4
*68 net5
*69 net6
*70 net7
*71 net8
*72 net9
*73 FILLER_0_11
*74 FILLER_0_21
*75 FILLER_0_3
*76 FILLER_0_44
*77 FILLER_0_57
*78 FILLER_0_69
*79 FILLER_1_15
*80 FILLER_1_3
*81 FILLER_1_50
*82 FILLER_1_66
*83 FILLER_1_78
*84 FILLER_2_13
*85 FILLER_2_29
*86 FILLER_2_43
*87 FILLER_2_55
*88 FILLER_2_63
*89 FILLER_2_69
*90 FILLER_3_11
*91 FILLER_3_3
*92 FILLER_3_34
*93 FILLER_3_46
*94 FILLER_3_54
*95 FILLER_3_60
*96 FILLER_3_65
*97 FILLER_3_77
*98 FILLER_4_10
*99 FILLER_4_29
*100 FILLER_4_41
*101 FILLER_4_49
*102 FILLER_4_6
*103 FILLER_4_72
*104 FILLER_4_80
*105 FILLER_5_13
*106 FILLER_5_27
*107 FILLER_5_39
*108 FILLER_5_51
*109 FILLER_5_55
*110 FILLER_5_57
*111 FILLER_5_65
*112 FILLER_5_70
*113 FILLER_5_76
*114 FILLER_6_10
*115 FILLER_6_15
*116 FILLER_6_21
*117 FILLER_6_27
*118 FILLER_6_32
*119 FILLER_6_44
*120 FILLER_6_50
*121 FILLER_6_58
*122 FILLER_6_68
*123 FILLER_6_80
*124 FILLER_7_22
*125 FILLER_7_26
*126 FILLER_7_3
*127 FILLER_7_41
*128 FILLER_7_54
*129 FILLER_7_57
*130 FILLER_7_63
*131 FILLER_7_69
*132 FILLER_8_15
*133 FILLER_8_27
*134 FILLER_8_3
*135 FILLER_8_36
*136 FILLER_8_44
*137 FILLER_8_53
*138 FILLER_8_65
*139 FILLER_8_7
*140 FILLER_8_77
*141 FILLER_9_19
*142 FILLER_9_27
*143 FILLER_9_29
*144 FILLER_9_41
*145 FILLER_9_49
*146 FILLER_9_57
*147 FILLER_9_69
*148 FILLER_9_7
*149 PHY_EDGE_ROW_0_Left_10
*150 PHY_EDGE_ROW_0_Right_0
*151 PHY_EDGE_ROW_1_Left_11
*152 PHY_EDGE_ROW_1_Right_1
*153 PHY_EDGE_ROW_2_Left_12
*154 PHY_EDGE_ROW_2_Right_2
*155 PHY_EDGE_ROW_3_Left_13
*156 PHY_EDGE_ROW_3_Right_3
*157 PHY_EDGE_ROW_4_Left_14
*158 PHY_EDGE_ROW_4_Right_4
*159 PHY_EDGE_ROW_5_Left_15
*160 PHY_EDGE_ROW_5_Right_5
*161 PHY_EDGE_ROW_6_Left_16
*162 PHY_EDGE_ROW_6_Right_6
*163 PHY_EDGE_ROW_7_Left_17
*164 PHY_EDGE_ROW_7_Right_7
*165 PHY_EDGE_ROW_8_Left_18
*166 PHY_EDGE_ROW_8_Right_8
*167 PHY_EDGE_ROW_9_Left_19
*168 PHY_EDGE_ROW_9_Right_9
*169 TAP_TAPCELL_ROW_0_20
*170 TAP_TAPCELL_ROW_0_21
*171 TAP_TAPCELL_ROW_1_22
*172 TAP_TAPCELL_ROW_2_23
*173 TAP_TAPCELL_ROW_3_24
*174 TAP_TAPCELL_ROW_4_25
*175 TAP_TAPCELL_ROW_5_26
*176 TAP_TAPCELL_ROW_6_27
*177 TAP_TAPCELL_ROW_7_28
*178 TAP_TAPCELL_ROW_8_29
*179 TAP_TAPCELL_ROW_9_30
*180 TAP_TAPCELL_ROW_9_31
*181 _37_
*182 _38_
*183 _39_
*184 _40_
*185 _41_
*186 _42_
*187 _43_
*188 _44_
*189 _45_
*190 _46_
*191 _47_
*192 _48_
*193 _49_
*194 _50_
*195 _51_
*196 _52_
*197 _53_
*198 _54_
*199 _55_
*200 _56_
*201 _57_
*202 _58_
*203 _59_
*204 _60_
*205 _61_
*206 _62_
*207 _63_
*208 _64_
*209 _65_
*210 _66_
*211 _67_
*212 _68_
*213 _69_
*214 _70_
*215 _71_
*216 _72_
*217 _73_
*218 _74_
*219 _75_
*220 _76_
*221 _77_
*222 _78_
*223 _79_
*224 _80_
*225 _81_
*226 _82_
*227 input1
*228 input2
*229 input3
*230 input4
*231 input5
*232 input6
*233 input7
*234 input8
*235 output10
*236 output11
*237 output12
*238 output13
*239 output14
*240 output15
*241 output16
*242 output9

*PORTS
A[0] I
A[1] I
A[2] I
A[3] I
B[0] I
B[1] I
B[2] I
B[3] I
P[0] O
P[1] O
P[2] O
P[3] O
P[4] O
P[5] O
P[6] O
P[7] O

*D_NET *1 0.00207215
*CONN
*P A[0] I
*I *227:A I *D sky130_fd_sc_hd__buf_1
*CAP
1 A[0] 0.00065306
2 *227:A 0.00065306
3 *227:A *182:C 0.000184745
4 *227:A *182:D 4.88637e-05
5 *227:A *184:A 1.39726e-05
6 *227:A *228:A 0.000122091
7 *227:A *231:A 0
8 *227:A *232:A 9.90431e-05
9 *227:A *57:8 6.87574e-05
10 *227:A *65:8 0.000228558
*RES
1 A[0] *227:A 28.1214 
*END

*D_NET *2 0.00131772
*CONN
*P A[1] I
*I *228:A I *D sky130_fd_sc_hd__dlymetal6s2s_1
*CAP
1 A[1] 0.000506125
2 *228:A 0.000506125
3 *228:A *182:C 0
4 *228:A *184:A 5.71472e-05
5 *228:A *232:A 0
6 *228:A *19:6 4.43256e-05
7 *228:A *57:14 2.8266e-06
8 *228:A *65:16 7.90803e-05
9 *227:A *228:A 0.000122091
*RES
1 A[1] *228:A 24.4429 
*END

*D_NET *3 0.000644452
*CONN
*P A[2] I
*I *229:A I *D sky130_fd_sc_hd__dlymetal6s2s_1
*CAP
1 A[2] 0.000311438
2 *229:A 0.000311438
3 *229:A *233:A 2.15768e-05
*RES
1 A[2] *229:A 21.0874 
*END

*D_NET *4 0.000759122
*CONN
*P A[3] I
*I *230:A I *D sky130_fd_sc_hd__buf_1
*CAP
1 A[3] 0.000332846
2 *230:A 0.000332846
3 *230:A P[7] 5.44117e-05
4 *230:A *202:B1 0
5 *230:A *234:A 2.87684e-05
6 *230:A *241:A 1.02504e-05
*RES
1 A[3] *230:A 19.0183 
*END

*D_NET *5 0.00176057
*CONN
*P B[0] I
*I *231:A I *D sky130_fd_sc_hd__buf_1
*CAP
1 B[0] 0.000719249
2 *231:A 0.000719249
3 *231:A P[0] 1.24368e-05
4 *231:A P[1] 9.90431e-05
5 *231:A *184:A 3.67257e-05
6 *231:A *184:B 5.65955e-05
7 *231:A *235:A 9.99853e-05
8 *231:A *68:18 1.72894e-05
9 *227:A *231:A 0
*RES
1 B[0] *231:A 27.3 
*END

*D_NET *6 0.00103446
*CONN
*P B[1] I
*I *232:A I *D sky130_fd_sc_hd__clkbuf_2
*CAP
1 B[1] 0.000418185
2 *232:A 0.000418185
3 *232:A *182:C 0
4 *232:A *57:8 9.90431e-05
5 *227:A *232:A 9.90431e-05
6 *228:A *232:A 0
*RES
1 B[1] *232:A 22.2464 
*END

*D_NET *7 0.000693258
*CONN
*P B[2] I
*I *233:A I *D sky130_fd_sc_hd__buf_1
*CAP
1 B[2] 0.000320845
2 *233:A 0.000320845
3 *233:A *234:A 2.99915e-05
4 *229:A *233:A 2.15768e-05
*RES
1 B[2] *233:A 21.6946 
*END

*D_NET *8 0.000640458
*CONN
*P B[3] I
*I *234:A I *D sky130_fd_sc_hd__dlymetal6s2s_1
*CAP
1 B[3] 0.000290849
2 *234:A 0.000290849
3 *230:A *234:A 2.87684e-05
4 *233:A *234:A 2.99915e-05
*RES
1 B[3] *234:A 21.0874 
*END

*D_NET *9 0.000958992
*CONN
*P P[0] O
*I *242:X O *D sky130_fd_sc_hd__buf_2
*CAP
1 P[0] 0.000473278
2 *242:X 0.000473278
3 P[0] P[1] 0
4 *231:A P[0] 1.24368e-05
*RES
1 *242:X P[0] 22.05 
*END

*D_NET *10 0.00099229
*CONN
*P P[1] O
*I *235:X O *D sky130_fd_sc_hd__buf_2
*CAP
1 P[1] 0.000446624
2 *235:X 0.000446624
3 P[0] P[1] 0
4 *231:A P[1] 9.90431e-05
*RES
1 *235:X P[1] 22.3 
*END

*D_NET *11 0.000506479
*CONN
*P P[2] O
*I *236:X O *D sky130_fd_sc_hd__buf_2
*CAP
1 P[2] 0.00025324
2 *236:X 0.00025324
3 P[2] P[3] 0
*RES
1 *236:X P[2] 18.4985 
*END

*D_NET *12 0.000556553
*CONN
*P P[3] O
*I *237:X O *D sky130_fd_sc_hd__buf_2
*CAP
1 P[3] 0.000278276
2 *237:X 0.000278276
3 P[3] P[4] 0
4 P[3] *35:8 0
5 P[2] P[3] 0
*RES
1 *237:X P[3] 18.8021 
*END

*D_NET *13 0.000474378
*CONN
*P P[4] O
*I *238:X O *D sky130_fd_sc_hd__buf_2
*CAP
1 P[4] 0.000237189
2 *238:X 0.000237189
3 P[3] P[4] 0
*RES
1 *238:X P[4] 18.1949 
*END

*D_NET *14 0.000951893
*CONN
*P P[5] O
*I *239:X O *D sky130_fd_sc_hd__buf_2
*CAP
1 P[5] 0.000475946
2 *239:X 0.000475946
*RES
1 *239:X P[5] 23.2643 
*END

*D_NET *15 0.000650987
*CONN
*P P[6] O
*I *240:X O *D sky130_fd_sc_hd__buf_2
*CAP
1 P[6] 0.000277691
2 *240:X 0.000277691
3 P[6] P[7] 5.40137e-05
4 P[6] *240:A 4.15914e-05
*RES
1 *240:X P[6] 19.4092 
*END

*D_NET *16 0.000765512
*CONN
*P P[7] O
*I *241:X O *D sky130_fd_sc_hd__buf_2
*CAP
1 P[7] 0.000328543
2 *241:X 0.000328543
3 P[7] *241:A 0
4 P[6] P[7] 5.40137e-05
5 *230:A P[7] 5.44117e-05
*RES
1 *241:X P[7] 20.8888 
*END

*D_NET *19 0.00314423
*CONN
*I *197:B1 I *D sky130_fd_sc_hd__o21ai_1
*I *187:C_N I *D sky130_fd_sc_hd__or3b_1
*I *188:A3 I *D sky130_fd_sc_hd__a32o_1
*I *184:A I *D sky130_fd_sc_hd__and2_1
*I *182:Y O *D sky130_fd_sc_hd__nand4_1
*CAP
1 *197:B1 0.000114902
2 *187:C_N 2.0816e-05
3 *188:A3 0
4 *184:A 0.000313628
5 *182:Y 7.29841e-05
6 *19:42 0.000292356
7 *19:29 0.000324368
8 *19:6 0.000554342
9 *184:A *65:8 2.35657e-05
10 *187:C_N *21:14 3.41517e-06
11 *197:B1 *197:A1 0.000185541
12 *197:B1 *197:A2 9.16558e-05
13 *197:B1 *21:14 6.37907e-05
14 *197:B1 *22:6 0.000101859
15 *197:B1 *32:12 3.08664e-05
16 *19:29 *182:A 0.00015501
17 *19:29 *183:B1 9.41642e-05
18 *19:29 *65:16 3.92757e-05
19 *19:42 *182:A 3.51442e-05
20 *19:42 *186:A 5.52238e-05
21 *19:42 *21:14 0.00011713
22 *19:42 *22:6 0.000146032
23 *19:42 *57:25 7.48356e-05
24 *19:42 *57:40 1.17968e-05
25 *19:42 *65:16 1.31516e-05
26 *19:42 *65:31 5.33786e-05
27 *19:42 *66:10 2.8266e-06
28 *227:A *184:A 1.39726e-05
29 *228:A *184:A 5.71472e-05
30 *228:A *19:6 4.43256e-05
31 *231:A *184:A 3.67257e-05
*RES
1 *182:Y *19:6 10.2464 
2 *19:6 *184:A 14.8 
3 *19:6 *19:29 16.5179 
4 *19:29 *188:A3 13.8 
5 *19:29 *19:42 9.64286 
6 *19:42 *187:C_N 9.72857 
7 *19:42 *197:B1 13.5321 
*END

*D_NET *20 0.000849814
*CONN
*I *184:B I *D sky130_fd_sc_hd__and2_1
*I *183:X O *D sky130_fd_sc_hd__a22o_1
*CAP
1 *184:B 0.000317115
2 *183:X 0.000317115
3 *184:B *181:A_N 2.976e-05
4 *184:B *181:B 0.000100604
5 *184:B *68:20 2.14658e-05
6 *184:B *68:33 7.15905e-06
7 *231:A *184:B 5.65955e-05
*RES
1 *183:X *184:B 32.2607 
*END

*D_NET *21 0.00378627
*CONN
*I *204:A I *D sky130_fd_sc_hd__nor2_1
*I *205:A1 I *D sky130_fd_sc_hd__o21ai_1
*I *197:A1 I *D sky130_fd_sc_hd__o21ai_1
*I *187:A I *D sky130_fd_sc_hd__or3b_1
*I *185:Y O *D sky130_fd_sc_hd__nand2_1
*CAP
1 *204:A 0.000299547
2 *205:A1 0.000108994
3 *197:A1 7.29143e-05
4 *187:A 0
5 *185:Y 3.86201e-05
6 *21:30 0.000549065
7 *21:14 0.000383749
8 *21:8 0.00048998
9 *204:A *214:A2 4.87953e-05
10 *204:A *214:B1 5.76121e-05
11 *204:A *70:21 9.99644e-06
12 *205:A1 *201:A 0
13 *205:A1 *201:B 0
14 *205:A1 *214:A2 6.05161e-06
15 *205:A1 *214:A3 6.36592e-05
16 *21:8 *185:A 7.83587e-05
17 *21:8 *202:A1 3.34366e-05
18 *21:8 *69:50 0.000100823
19 *21:14 *186:A 5.52238e-05
20 *21:14 *186:B 0.000142856
21 *21:14 *65:31 0.000222666
22 *21:14 *66:10 6.42095e-05
23 *21:30 *201:B 9.25014e-06
24 *21:30 *202:A1 0.000241665
25 *21:30 *202:B1 0
26 *21:30 *66:46 0.000125717
27 *21:30 *69:50 0.00020042
28 *21:30 *70:25 1.27784e-05
29 *187:C_N *21:14 3.41517e-06
30 *197:B1 *197:A1 0.000185541
31 *197:B1 *21:14 6.37907e-05
32 *19:42 *21:14 0.00011713
*RES
1 *185:Y *21:8 15.1393 
2 *21:8 *21:14 11.625 
3 *21:14 *187:A 9.3 
4 *21:14 *197:A1 11.0679 
5 *21:8 *21:30 9.17857 
6 *21:30 *205:A1 11.1036 
7 *21:30 *204:A 13.4429 
*END

*D_NET *22 0.00120557
*CONN
*I *197:A2 I *D sky130_fd_sc_hd__o21ai_1
*I *187:B I *D sky130_fd_sc_hd__or3b_1
*I *186:Y O *D sky130_fd_sc_hd__nand2_1
*CAP
1 *197:A2 0.000128862
2 *187:B 0
3 *186:Y 0.000304152
4 *22:6 0.000433014
5 *197:B1 *197:A2 9.16558e-05
6 *197:B1 *22:6 0.000101859
7 *19:42 *22:6 0.000146032
*RES
1 *186:Y *22:6 13.5321 
2 *22:6 *187:B 9.3 
3 *22:6 *197:A2 11.0679 
*END

*D_NET *23 0.00268777
*CONN
*I *190:A1 I *D sky130_fd_sc_hd__a21oi_1
*I *191:A I *D sky130_fd_sc_hd__and3_1
*I *187:X O *D sky130_fd_sc_hd__or3b_1
*CAP
1 *190:A1 0.000193618
2 *191:A 0
3 *187:X 0.0002042
4 *23:12 0.000397819
5 *190:A1 *190:B1 0.000179043
6 *190:A1 *25:14 9.21861e-05
7 *23:12 *189:B 0.000329344
8 *23:12 *226:A 1.74352e-05
9 *23:12 *24:14 0.000792639
10 *23:12 *25:14 0.00041219
11 *23:12 *57:25 0
12 *23:12 *68:18 4.48647e-05
13 *23:12 *68:20 2.44318e-05
*RES
1 *187:X *23:12 27.5679 
2 *23:12 *191:A 9.3 
3 *23:12 *190:A1 12.3179 
*END

*D_NET *24 0.00368843
*CONN
*I *190:A2 I *D sky130_fd_sc_hd__a21oi_1
*I *191:B I *D sky130_fd_sc_hd__and3_1
*I *188:X O *D sky130_fd_sc_hd__a32o_1
*CAP
1 *190:A2 8.36872e-05
2 *191:B 0
3 *188:X 0.00103362
4 *24:14 0.00111731
5 *190:A2 *190:B1 0.000123819
6 *190:A2 *25:14 3.13772e-05
7 *190:A2 *27:10 3.18676e-05
8 *24:14 *182:A 0.000186393
9 *24:14 *25:14 4.59467e-05
10 *24:14 *27:10 0
11 *24:14 *68:18 0
12 *24:14 *68:20 1.16111e-05
13 *24:14 *68:33 0.000230155
14 *23:12 *24:14 0.000792639
*RES
1 *188:X *24:14 32.925 
2 *24:14 *191:B 9.3 
3 *24:14 *190:A2 11.6929 
*END

*D_NET *25 0.00175186
*CONN
*I *190:B1 I *D sky130_fd_sc_hd__a21oi_1
*I *191:C I *D sky130_fd_sc_hd__and3_1
*I *189:X O *D sky130_fd_sc_hd__and2_1
*CAP
1 *190:B1 8.45828e-05
2 *191:C 0
3 *189:X 0.000256972
4 *25:14 0.000341555
5 *190:B1 *27:10 1.39726e-05
6 *25:14 *226:A 0.000116063
7 *25:14 *242:A 5.41494e-05
8 *190:A1 *190:B1 0.000179043
9 *190:A1 *25:14 9.21861e-05
10 *190:A2 *190:B1 0.000123819
11 *190:A2 *25:14 3.13772e-05
12 *23:12 *25:14 0.00041219
13 *24:14 *25:14 4.59467e-05
*RES
1 *189:X *25:14 16.55 
2 *25:14 *191:C 9.3 
3 *25:14 *190:B1 11.8179 
*END

*D_NET *26 0.000505596
*CONN
*I *192:A I *D sky130_fd_sc_hd__nor2_1
*I *190:Y O *D sky130_fd_sc_hd__a21oi_1
*CAP
1 *192:A 0.000165892
2 *190:Y 0.000165892
3 *192:A *192:B 5.52302e-05
4 *192:A *27:10 0.000100969
5 *192:A *27:23 1.76135e-05
*RES
1 *190:Y *192:A 30.9929 
*END

*D_NET *27 0.00204539
*CONN
*I *200:A I *D sky130_fd_sc_hd__and3_1
*I *223:B1 I *D sky130_fd_sc_hd__a21oi_1
*I *192:B I *D sky130_fd_sc_hd__nor2_1
*I *191:X O *D sky130_fd_sc_hd__and3_1
*CAP
1 *200:A 0.000148766
2 *223:B1 5.47173e-05
3 *192:B 0.000155755
4 *191:X 0.000172905
5 *27:23 0.000373275
6 *27:10 0.000498452
7 *192:B *236:A 3.18676e-05
8 *200:A *199:A1 1.97695e-05
9 *200:A *199:A2 7.43578e-06
10 *200:A *199:B1_N 5.23057e-05
11 *200:A *200:C 0.000140933
12 *200:A *223:A2 0.000127439
13 *200:A *31:12 0
14 *223:B1 *224:B 3.18676e-05
15 *27:23 *223:A2 1.02504e-05
16 *27:23 *224:B 0
17 *190:A2 *27:10 3.18676e-05
18 *190:B1 *27:10 1.39726e-05
19 *192:A *192:B 5.52302e-05
20 *192:A *27:10 0.000100969
21 *192:A *27:23 1.76135e-05
22 *24:14 *27:10 0
*RES
1 *191:X *27:10 17.3 
2 *27:10 *192:B 16.4071 
3 *27:10 *27:23 3.16071 
4 *27:23 *223:B1 14.8714 
5 *27:23 *200:A 17.6393 
*END

*D_NET *28 0.00071958
*CONN
*I *215:B1 I *D sky130_fd_sc_hd__a21oi_1
*I *193:Y O *D sky130_fd_sc_hd__nand2_1
*CAP
1 *215:B1 0.00021941
2 *193:Y 0.00021941
3 *215:B1 *193:A 1.72894e-05
4 *215:B1 *216:A 0.000108118
5 *215:B1 *216:B 4.2381e-05
6 *215:B1 *219:A1 1.37612e-05
7 *215:B1 *219:A2 2.51343e-06
8 *215:B1 *219:B2 9.66977e-05
*RES
1 *193:Y *215:B1 31.7429 
*END

*D_NET *29 0.00624866
*CONN
*I *208:A I *D sky130_fd_sc_hd__nand2_1
*I *215:A1 I *D sky130_fd_sc_hd__a21oi_1
*I *207:B1 I *D sky130_fd_sc_hd__a21oi_1
*I *199:A1 I *D sky130_fd_sc_hd__o21bai_1
*I *198:A I *D sky130_fd_sc_hd__or3b_1
*I *194:X O *D sky130_fd_sc_hd__and4_1
*CAP
1 *208:A 3.73264e-05
2 *215:A1 4.79986e-05
3 *207:B1 0
4 *199:A1 0.000271657
5 *198:A 0.000156312
6 *194:X 0.000744934
7 *29:47 0.000671295
8 *29:25 0.000350963
9 *29:14 0.000299986
10 *29:10 0.00139527
11 *198:A *209:B 3.18676e-05
12 *198:A *32:25 0.000298726
13 *199:A1 *199:A2 2.32013e-05
14 *199:A1 *32:25 0.000291235
15 *208:A *41:36 1.35419e-05
16 *215:A1 *216:B 3.14963e-05
17 *215:A1 *219:A1 9.78745e-05
18 *215:A1 *219:B2 9.35794e-06
19 *215:A1 *41:25 2.93304e-05
20 *215:A1 *41:36 1.83053e-05
21 *29:10 *189:B 2.75452e-05
22 *29:10 *30:10 0.000615849
23 *29:10 *32:12 8.04913e-05
24 *29:10 *66:16 0.000229456
25 *29:25 *32:25 0.000142856
26 *29:47 *209:B 0
27 *29:47 *213:A_N 0
28 *29:47 *213:B 0.000171156
29 *29:47 *217:B 5.52238e-05
30 *29:47 *219:A1 4.27935e-05
31 *29:47 *32:12 1.19402e-05
32 *29:47 *41:10 0
33 *29:47 *41:25 0
34 *29:47 *41:36 3.08983e-05
35 *200:A *199:A1 1.97695e-05
*RES
1 *194:X *29:10 25.4071 
2 *29:10 *29:14 5.44643 
3 *29:14 *198:A 13.4429 
4 *29:14 *29:25 1.76786 
5 *29:25 *199:A1 13.8714 
6 *29:25 *207:B1 9.3 
7 *29:10 *29:47 15.7321 
8 *29:47 *215:A1 19.9786 
9 *29:47 *208:A 10.0321 
*END

*D_NET *30 0.00200705
*CONN
*I *207:A1 I *D sky130_fd_sc_hd__a21oi_1
*I *196:A I *D sky130_fd_sc_hd__inv_2
*I *195:X O *D sky130_fd_sc_hd__a22o_1
*CAP
1 *207:A1 6.57152e-05
2 *196:A 0.000154494
3 *195:X 0.000312673
4 *30:10 0.000532882
5 *207:A1 *31:12 0
6 *207:A1 *32:12 0.000119618
7 *30:10 *189:B 0.000147492
8 *30:10 *32:12 5.83304e-05
9 *29:10 *30:10 0.000615849
*RES
1 *195:X *30:10 22.05 
2 *30:10 *196:A 16.3893 
3 *30:10 *207:A1 15.4429 
*END

*D_NET *31 0.000778416
*CONN
*I *199:A2 I *D sky130_fd_sc_hd__o21bai_1
*I *198:B I *D sky130_fd_sc_hd__or3b_1
*I *196:Y O *D sky130_fd_sc_hd__inv_2
*CAP
1 *199:A2 7.17818e-05
2 *198:B 3.82418e-05
3 *196:Y 0.000156964
4 *31:12 0.000266988
5 *199:A2 *199:B1_N 0.000142856
6 *199:A2 *32:25 2.44318e-05
7 *31:12 *199:B1_N 1.76039e-05
8 *31:12 *224:B 0
9 *31:12 *32:12 0
10 *31:12 *32:25 2.89114e-05
11 *199:A1 *199:A2 2.32013e-05
12 *200:A *199:A2 7.43578e-06
13 *200:A *31:12 0
14 *207:A1 *31:12 0
*RES
1 *196:Y *31:12 20.7821 
2 *31:12 *198:B 10.0321 
3 *31:12 *199:A2 11.4964 
*END

*D_NET *32 0.00288905
*CONN
*I *198:C_N I *D sky130_fd_sc_hd__or3b_1
*I *199:B1_N I *D sky130_fd_sc_hd__o21bai_1
*I *207:A2 I *D sky130_fd_sc_hd__a21oi_1
*I *197:Y O *D sky130_fd_sc_hd__o21ai_1
*CAP
1 *198:C_N 0
2 *199:B1_N 0.000188866
3 *207:A2 0
4 *197:Y 0.000504529
5 *32:25 0.000289908
6 *32:12 0.000605571
7 *199:B1_N *224:B 0
8 *197:B1 *32:12 3.08664e-05
9 *198:A *32:25 0.000298726
10 *199:A1 *32:25 0.000291235
11 *199:A2 *199:B1_N 0.000142856
12 *199:A2 *32:25 2.44318e-05
13 *200:A *199:B1_N 5.23057e-05
14 *207:A1 *32:12 0.000119618
15 *29:10 *32:12 8.04913e-05
16 *29:25 *32:25 0.000142856
17 *29:47 *32:12 1.19402e-05
18 *30:10 *32:12 5.83304e-05
19 *31:12 *199:B1_N 1.76039e-05
20 *31:12 *32:12 0
21 *31:12 *32:25 2.89114e-05
*RES
1 *197:Y *32:12 26.1929 
2 *32:12 *207:A2 9.3 
3 *32:12 *32:25 5.21429 
4 *32:25 *199:B1_N 21.6214 
5 *32:25 *198:C_N 9.3 
*END

*D_NET *33 0.00302194
*CONN
*I *213:A_N I *D sky130_fd_sc_hd__nand2b_1
*I *200:B I *D sky130_fd_sc_hd__and3_1
*I *223:A1 I *D sky130_fd_sc_hd__a21oi_1
*I *198:X O *D sky130_fd_sc_hd__or3b_1
*CAP
1 *213:A_N 0.000298512
2 *200:B 0
3 *223:A1 0.000325788
4 *198:X 5.3525e-05
5 *33:16 0.00090837
6 *33:8 0.000934619
7 *213:A_N *209:B 0.00014535
8 *213:A_N *45:12 0
9 *213:A_N *45:21 5.52238e-05
10 *223:A1 *224:B 0.000153814
11 *223:A1 *35:8 5.80706e-06
12 *33:8 *209:B 3.92854e-05
13 *33:16 *224:B 3.34687e-05
14 *33:16 *237:A 2.89016e-05
15 *33:16 *35:8 3.92757e-05
16 *29:47 *213:A_N 0
*RES
1 *198:X *33:8 14.8357 
2 *33:8 *33:16 16.3214 
3 *33:16 *223:A1 18.9429 
4 *33:16 *200:B 13.8 
5 *33:8 *213:A_N 20.2286 
*END

*D_NET *34 0.000790602
*CONN
*I *200:C I *D sky130_fd_sc_hd__and3_1
*I *223:A2 I *D sky130_fd_sc_hd__a21oi_1
*I *199:Y O *D sky130_fd_sc_hd__o21bai_1
*CAP
1 *200:C 0.000182016
2 *223:A2 5.26933e-05
3 *199:Y 0
4 *34:4 0.000234709
5 *223:A2 *224:B 4.25622e-05
6 *200:A *200:C 0.000140933
7 *200:A *223:A2 0.000127439
8 *27:23 *223:A2 1.02504e-05
*RES
1 *199:Y *34:4 9.3 
2 *34:4 *223:A2 19.9429 
3 *34:4 *200:C 11.55 
*END

*D_NET *35 0.00123322
*CONN
*I *210:A I *D sky130_fd_sc_hd__nand2_1
*I *211:A I *D sky130_fd_sc_hd__or2_1
*I *224:A I *D sky130_fd_sc_hd__nor2_1
*I *200:X O *D sky130_fd_sc_hd__and3_1
*CAP
1 *210:A 6.87196e-05
2 *211:A 0
3 *224:A 4.05809e-05
4 *200:X 0.000103278
5 *35:23 0.00035203
6 *35:8 0.000427169
7 *210:A *211:B 5.71472e-05
8 *210:A *45:12 4.01768e-05
9 *224:A *237:A 9.90367e-05
10 *35:8 *224:B 0
11 P[3] *35:8 0
12 *223:A1 *35:8 5.80706e-06
13 *33:16 *35:8 3.92757e-05
*RES
1 *200:X *35:8 15.7464 
2 *35:8 *224:A 14.7464 
3 *35:8 *35:23 9.03571 
4 *35:23 *211:A 9.3 
5 *35:23 *210:A 11.0857 
*END

*D_NET *36 0.000660544
*CONN
*I *206:A I *D sky130_fd_sc_hd__xor2_2
*I *201:Y O *D sky130_fd_sc_hd__nand2_1
*CAP
1 *206:A 0.000194607
2 *201:Y 0.000194607
3 *206:A *202:B1 0.000128154
4 *206:A *206:B 4.70821e-05
5 *206:A *71:12 9.60939e-05
*RES
1 *201:Y *206:A 31.4214 
*END

*D_NET *37 0.00100763
*CONN
*I *214:A3 I *D sky130_fd_sc_hd__a31o_1
*I *205:B1 I *D sky130_fd_sc_hd__o21ai_1
*I *202:X O *D sky130_fd_sc_hd__a22o_1
*CAP
1 *214:A3 6.83613e-05
2 *205:B1 0
3 *202:X 0.000127474
4 *37:12 0.000195835
5 *214:A3 *201:B 3.67257e-05
6 *214:A3 *214:A2 5.33005e-05
7 *214:A3 *70:21 0.000269428
8 *37:12 *201:B 0
9 *37:12 *202:B1 0.000168194
10 *37:12 *204:B 1.28585e-05
11 *37:12 *38:10 1.17968e-05
12 *205:A1 *214:A3 6.36592e-05
*RES
1 *202:X *37:12 20.7821 
2 *37:12 *205:B1 9.3 
3 *37:12 *214:A3 11.8893 
*END

*D_NET *38 0.00237707
*CONN
*I *221:A0 I *D sky130_fd_sc_hd__mux2_1
*I *205:A2 I *D sky130_fd_sc_hd__o21ai_1
*I *204:B I *D sky130_fd_sc_hd__nor2_1
*I *203:Y O *D sky130_fd_sc_hd__nand2_1
*CAP
1 *221:A0 0.000150405
2 *205:A2 0
3 *204:B 0.000427608
4 *203:Y 7.48623e-05
5 *38:10 0.000574006
6 *38:8 0.000371664
7 *204:B *201:B 4.6025e-06
8 *204:B *214:A2 3.43988e-06
9 *204:B *70:25 6.27272e-06
10 *204:B *71:34 6.27272e-06
11 *221:A0 *225:A1_N 0
12 *221:A0 *48:8 1.02504e-05
13 *221:A0 *48:23 0.000191877
14 *221:A0 *53:10 0.00010326
15 *221:A0 *67:32 0
16 *221:A0 *71:12 1.69115e-05
17 *38:8 *71:19 5.03772e-05
18 *38:10 *202:B1 1.18451e-05
19 *38:10 *206:B 0.000150618
20 *38:10 *214:A2 2.83284e-06
21 *38:10 *48:8 0.000134588
22 *38:10 *66:80 0
23 *38:10 *71:12 6.07232e-05
24 *37:12 *204:B 1.28585e-05
25 *37:12 *38:10 1.17968e-05
*RES
1 *203:Y *38:8 14.7464 
2 *38:8 *38:10 4.375 
3 *38:10 *204:B 21.8692 
4 *38:10 *205:A2 13.8 
5 *38:8 *221:A0 17.8 
*END

*D_NET *39 0.000171099
*CONN
*I *214:B1 I *D sky130_fd_sc_hd__a31o_1
*I *204:Y O *D sky130_fd_sc_hd__nor2_1
*CAP
1 *214:B1 5.67437e-05
2 *204:Y 5.67437e-05
3 *204:A *214:B1 5.76121e-05
*RES
1 *204:Y *214:B1 19.9571 
*END

*D_NET *40 0.000441264
*CONN
*I *206:B I *D sky130_fd_sc_hd__xor2_2
*I *205:Y O *D sky130_fd_sc_hd__o21ai_1
*CAP
1 *206:B 8.02241e-05
2 *205:Y 8.02241e-05
3 *206:B *202:B1 7.38652e-05
4 *206:B *71:12 9.25014e-06
5 *206:A *206:B 4.70821e-05
6 *38:10 *206:B 0.000150618
*RES
1 *205:Y *206:B 20.7196 
*END

*D_NET *41 0.00348256
*CONN
*I *213:B I *D sky130_fd_sc_hd__nand2b_1
*I *208:B I *D sky130_fd_sc_hd__nand2_1
*I *215:A2 I *D sky130_fd_sc_hd__a21oi_1
*I *209:A I *D sky130_fd_sc_hd__xnor2_1
*I *206:X O *D sky130_fd_sc_hd__xor2_2
*CAP
1 *213:B 9.00485e-05
2 *208:B 0
3 *215:A2 0
4 *209:A 0.000415469
5 *206:X 0.000483272
6 *41:36 0.000155942
7 *41:25 0.000304278
8 *41:10 0.00113712
9 *213:B *217:B 6.79057e-05
10 *213:B *219:B2 8.74549e-05
11 *213:B *45:21 0.000277018
12 *213:B *45:23 5.65955e-05
13 *41:10 *71:34 0
14 *41:36 *219:B2 0.000144222
15 *208:A *41:36 1.35419e-05
16 *215:A1 *41:25 2.93304e-05
17 *215:A1 *41:36 1.83053e-05
18 *29:47 *213:B 0.000171156
19 *29:47 *41:10 0
20 *29:47 *41:25 0
21 *29:47 *41:36 3.08983e-05
*RES
1 *206:X *41:10 20.8 
2 *41:10 *209:A 20.0857 
3 *41:10 *41:25 7.89286 
4 *41:25 *215:A2 9.3 
5 *41:25 *41:36 2.21429 
6 *41:36 *208:B 9.3 
7 *41:36 *213:B 14.0768 
*END

*D_NET *42 0.000656791
*CONN
*I *209:B I *D sky130_fd_sc_hd__xnor2_1
*I *207:Y O *D sky130_fd_sc_hd__a21oi_1
*CAP
1 *209:B 0.000220144
2 *207:Y 0.000220144
3 *198:A *209:B 3.18676e-05
4 *213:A_N *209:B 0.00014535
5 *29:47 *209:B 0
6 *33:8 *209:B 3.92854e-05
*RES
1 *207:Y *209:B 32.5107 
*END

*D_NET *43 0.00068175
*CONN
*I *219:A1 I *D sky130_fd_sc_hd__o22a_1
*I *208:Y O *D sky130_fd_sc_hd__nand2_1
*CAP
1 *219:A1 0.000258441
2 *208:Y 0.000258441
3 *219:A1 *219:B2 1.04375e-05
4 *215:A1 *219:A1 9.78745e-05
5 *215:B1 *219:A1 1.37612e-05
6 *29:47 *219:A1 4.27935e-05
*RES
1 *208:Y *219:A1 22.225 
*END

*D_NET *44 0.000447096
*CONN
*I *210:B I *D sky130_fd_sc_hd__nand2_1
*I *211:B I *D sky130_fd_sc_hd__or2_1
*I *209:Y O *D sky130_fd_sc_hd__xnor2_1
*CAP
1 *210:B 0
2 *211:B 7.93691e-05
3 *209:Y 0.000108977
4 *44:8 0.000188347
5 *211:B *45:12 1.32552e-05
6 *210:A *211:B 5.71472e-05
*RES
1 *209:Y *44:8 11.3893 
2 *44:8 *211:B 11.0857 
3 *44:8 *210:B 9.3 
*END

*D_NET *45 0.00354722
*CONN
*I *218:A1 I *D sky130_fd_sc_hd__o21ba_1
*I *219:B2 I *D sky130_fd_sc_hd__o22a_1
*I *217:A I *D sky130_fd_sc_hd__and3_1
*I *212:A I *D sky130_fd_sc_hd__and2_1
*I *210:Y O *D sky130_fd_sc_hd__nand2_1
*CAP
1 *218:A1 9.42433e-05
2 *219:B2 0.000505768
3 *217:A 0
4 *212:A 0
5 *210:Y 0.000177121
6 *45:23 0.000527907
7 *45:21 0.000603479
8 *45:12 0.000664218
9 *218:A1 *217:C 0.000101227
10 *218:A1 *218:B1_N 7.6612e-06
11 *219:B2 *219:A2 3.06878e-06
12 *219:B2 *48:23 5.39166e-06
13 *45:12 *212:B 4.57445e-05
14 *45:21 *217:C 2.0954e-05
15 *210:A *45:12 4.01768e-05
16 *211:B *45:12 1.32552e-05
17 *213:A_N *45:12 0
18 *213:A_N *45:21 5.52238e-05
19 *213:B *219:B2 8.74549e-05
20 *213:B *45:21 0.000277018
21 *213:B *45:23 5.65955e-05
22 *215:A1 *219:B2 9.35794e-06
23 *215:B1 *219:B2 9.66977e-05
24 *219:A1 *219:B2 1.04375e-05
25 *41:36 *219:B2 0.000144222
*RES
1 *210:Y *45:12 21.3 
2 *45:12 *212:A 9.3 
3 *45:12 *45:21 8.66071 
4 *45:21 *45:23 0.535714 
5 *45:23 *217:A 9.3 
6 *45:23 *219:B2 16.3357 
7 *45:21 *218:A1 20.2464 
*END

*D_NET *46 0.000309167
*CONN
*I *212:B I *D sky130_fd_sc_hd__and2_1
*I *211:X O *D sky130_fd_sc_hd__or2_1
*CAP
1 *212:B 0.000131711
2 *211:X 0.000131711
3 *45:12 *212:B 4.57445e-05
*RES
1 *211:X *212:B 30.0821 
*END

*D_NET *47 0.000436294
*CONN
*I *217:B I *D sky130_fd_sc_hd__and3_1
*I *213:Y O *D sky130_fd_sc_hd__nand2b_1
*CAP
1 *217:B 0.000156582
2 *213:Y 0.000156582
3 *213:B *217:B 6.79057e-05
4 *29:47 *217:B 5.52238e-05
*RES
1 *213:Y *217:B 20.7786 
*END

*D_NET *48 0.00259317
*CONN
*I *219:A2 I *D sky130_fd_sc_hd__o22a_1
*I *216:A I *D sky130_fd_sc_hd__xnor2_1
*I *220:C I *D sky130_fd_sc_hd__and3_1
*I *214:X O *D sky130_fd_sc_hd__a31o_1
*CAP
1 *219:A2 4.37511e-05
2 *216:A 0.000138179
3 *220:C 1.72674e-05
4 *214:X 0.000101265
5 *48:23 0.000778672
6 *48:8 0.000715275
7 *216:A *216:B 4.75428e-05
8 *216:A *219:B1 6.74815e-05
9 *216:A *52:12 0
10 *220:C *71:19 9.50968e-06
11 *48:8 *66:80 0.000145574
12 *48:23 *221:S 5.52302e-05
13 *48:23 *66:80 1.76135e-05
14 *48:23 *71:34 0
15 *215:B1 *216:A 0.000108118
16 *215:B1 *219:A2 2.51343e-06
17 *219:B2 *219:A2 3.06878e-06
18 *219:B2 *48:23 5.39166e-06
19 *221:A0 *48:8 1.02504e-05
20 *221:A0 *48:23 0.000191877
21 *38:10 *48:8 0.000134588
*RES
1 *214:X *48:8 17.2643 
2 *48:8 *220:C 13.9964 
3 *48:8 *48:23 12.5179 
4 *48:23 *216:A 21.4607 
5 *48:23 *219:A2 9.83571 
*END

*D_NET *49 0.000593113
*CONN
*I *216:B I *D sky130_fd_sc_hd__xnor2_1
*I *215:Y O *D sky130_fd_sc_hd__a21oi_1
*CAP
1 *216:B 0.000218725
2 *215:Y 0.000218725
3 *216:B *219:B1 3.42426e-05
4 *215:A1 *216:B 3.14963e-05
5 *215:B1 *216:B 4.2381e-05
6 *216:A *216:B 4.75428e-05
*RES
1 *215:Y *216:B 31.7071 
*END

*D_NET *50 0.0018066
*CONN
*I *218:A2 I *D sky130_fd_sc_hd__o21ba_1
*I *217:C I *D sky130_fd_sc_hd__and3_1
*I *219:B1 I *D sky130_fd_sc_hd__o22a_1
*I *216:Y O *D sky130_fd_sc_hd__xnor2_1
*CAP
1 *218:A2 5.6595e-05
2 *217:C 5.71159e-05
3 *219:B1 0.000281827
4 *216:Y 0
5 *50:21 0.000463183
6 *50:4 0.0006313
7 *217:C *218:B1_N 5.10822e-05
8 *219:B1 *52:12 4.15914e-05
9 *216:A *219:B1 6.74815e-05
10 *216:B *219:B1 3.42426e-05
11 *218:A1 *217:C 0.000101227
12 *45:21 *217:C 2.0954e-05
*RES
1 *216:Y *50:4 9.3 
2 *50:4 *219:B1 22.5321 
3 *50:4 *50:21 5.07143 
4 *50:21 *217:C 19.8357 
5 *50:21 *218:A2 10.2643 
*END

*D_NET *51 0.000340066
*CONN
*I *218:B1_N I *D sky130_fd_sc_hd__o21ba_1
*I *217:X O *D sky130_fd_sc_hd__and3_1
*CAP
1 *218:B1_N 0.000140661
2 *217:X 0.000140661
3 *217:C *218:B1_N 5.10822e-05
4 *218:A1 *218:B1_N 7.6612e-06
*RES
1 *217:X *218:B1_N 30.1893 
*END

*D_NET *52 0.00150259
*CONN
*I *222:A I *D sky130_fd_sc_hd__xor2_1
*I *225:A1_N I *D sky130_fd_sc_hd__a2bb2o_1
*I *219:X O *D sky130_fd_sc_hd__o22a_1
*CAP
1 *222:A 0
2 *225:A1_N 0.000254428
3 *219:X 0.000466428
4 *52:12 0.000720856
5 *225:A1_N *222:B 0
6 *225:A1_N *240:A 1.92905e-05
7 *216:A *52:12 0
8 *219:B1 *52:12 4.15914e-05
9 *221:A0 *225:A1_N 0
*RES
1 *219:X *52:12 26.2286 
2 *52:12 *225:A1_N 22.7286 
3 *52:12 *222:A 9.3 
*END

*D_NET *53 0.000966944
*CONN
*I *221:S I *D sky130_fd_sc_hd__mux2_1
*I *225:B1 I *D sky130_fd_sc_hd__a2bb2o_1
*I *220:X O *D sky130_fd_sc_hd__and3_1
*CAP
1 *221:S 7.26388e-05
2 *225:B1 8.91928e-05
3 *220:X 4.93013e-05
4 *53:10 0.000211133
5 *221:S *221:A1 9.60939e-05
6 *225:B1 *221:A1 0.000140933
7 *225:B1 *225:A2_N 2.28499e-05
8 *225:B1 *225:B2 9.09605e-05
9 *53:10 *221:A1 9.69119e-06
10 *53:10 *67:32 2.56601e-05
11 *221:A0 *53:10 0.00010326
12 *48:23 *221:S 5.52302e-05
*RES
1 *220:X *53:10 19.6393 
2 *53:10 *225:B1 11.4964 
3 *53:10 *221:S 11.0857 
*END

*D_NET *54 0.00059874
*CONN
*I *222:B I *D sky130_fd_sc_hd__xor2_1
*I *225:A2_N I *D sky130_fd_sc_hd__a2bb2o_1
*I *221:X O *D sky130_fd_sc_hd__mux2_1
*CAP
1 *222:B 0.000119959
2 *225:A2_N 0.00015305
3 *221:X 0
4 *54:4 0.000273009
5 *225:A2_N *221:A1 1.24368e-05
6 *225:A2_N *225:B2 1.74352e-05
7 *225:A1_N *222:B 0
8 *225:B1 *225:A2_N 2.28499e-05
*RES
1 *221:X *54:4 9.3 
2 *54:4 *225:A2_N 12.2107 
3 *54:4 *222:B 20.2464 
*END

*D_NET *55 0.00108515
*CONN
*I *224:B I *D sky130_fd_sc_hd__nor2_1
*I *223:Y O *D sky130_fd_sc_hd__a21oi_1
*CAP
1 *224:B 0.000411718
2 *223:Y 0.000411718
3 *199:B1_N *224:B 0
4 *223:A1 *224:B 0.000153814
5 *223:A2 *224:B 4.25622e-05
6 *223:B1 *224:B 3.18676e-05
7 *27:23 *224:B 0
8 *31:12 *224:B 0
9 *33:16 *224:B 3.34687e-05
10 *35:8 *224:B 0
*RES
1 *223:Y *224:B 35.7786 
*END

*D_NET *56 0.000627302
*CONN
*I *226:A I *D sky130_fd_sc_hd__clkbuf_1
*I *181:X O *D sky130_fd_sc_hd__and2b_1
*CAP
1 *226:A 0.000131686
2 *181:X 0.000131686
3 *226:A *68:18 0.000173836
4 *226:A *68:20 5.65955e-05
5 *23:12 *226:A 1.74352e-05
6 *25:14 *226:A 0.000116063
*RES
1 *181:X *226:A 21.9214 
*END

*D_NET *57 0.00332099
*CONN
*I *182:D I *D sky130_fd_sc_hd__nand4_1
*I *183:B2 I *D sky130_fd_sc_hd__a22o_1
*I *194:B I *D sky130_fd_sc_hd__and4_1
*I *195:B2 I *D sky130_fd_sc_hd__a22o_1
*I *186:A I *D sky130_fd_sc_hd__nand2_1
*I *188:B2 I *D sky130_fd_sc_hd__a32o_1
*I *227:X O *D sky130_fd_sc_hd__buf_1
*CAP
1 *182:D 5.84046e-05
2 *183:B2 2.60319e-05
3 *194:B 5.37491e-05
4 *195:B2 0
5 *186:A 1.1624e-05
6 *188:B2 0
7 *227:X 0.000121764
8 *57:40 0.000260068
9 *57:25 0.000336884
10 *57:21 0.00023203
11 *57:14 0.00017084
12 *57:8 0.000263951
13 *183:B2 *182:A 2.89114e-05
14 *183:B2 *183:B1 6.35823e-05
15 *194:B *195:A1 8.87196e-05
16 *194:B *195:B1 2.44266e-05
17 *194:B *202:A2 9.90431e-05
18 *194:B *66:46 5.33005e-05
19 *194:B *71:36 0.000131439
20 *57:14 *182:C 3.34366e-05
21 *57:14 *65:16 2.59969e-05
22 *57:14 *69:19 0.000128154
23 *57:14 *69:32 3.34366e-05
24 *57:21 *182:A 2.59355e-05
25 *57:21 *183:B1 0.000309273
26 *57:21 *188:A2 0.000183726
27 *57:25 *182:A 5.66157e-05