*SPEF "ieee 1481-1999"
*DESIGN "mult4_SARSA_RUIDO_e9_SARSA_RUIDO_e9_SarsaNada_e6_SARSA_RUIDO_e9"
*DATE "14:27:34 Tuesday September 16, 2025"
*VENDOR "The OpenROAD Project"
*PROGRAM "OpenROAD"
*VERSION "edf00dff99f6c40d67a30c0e22a8191c5d2ed9d6"
*DESIGN_FLOW "NAME_SCOPE LOCAL" "PIN_CAP NONE"
*DIVIDER /
*DELIMITER :
*BUS_DELIMITER []
*T_UNIT 1 NS
*C_UNIT 1 PF
*R_UNIT 1 OHM
*L_UNIT 1 HENRY

*NAME_MAP
*1 A[0]
*2 A[1]
*3 A[2]
*4 A[3]
*5 B[0]
*6 B[1]
*7 B[2]
*8 B[3]
*9 P[0]
*10 P[1]
*11 P[2]
*12 P[3]
*13 P[4]
*14 P[5]
*15 P[6]
*16 P[7]
*19 _00_
*20 _01_
*21 _02_
*22 _03_
*23 _04_
*24 _05_
*25 _06_
*26 _07_
*27 _08_
*28 _09_
*29 _10_
*30 _11_
*31 _12_
*32 _13_
*33 _14_
*34 _15_
*35 _16_
*36 _17_
*37 _18_
*38 _19_
*39 _20_
*40 _21_
*41 _22_
*42 _23_
*43 _24_
*44 _25_
*45 _26_
*46 _27_
*47 _28_
*48 _29_
*49 _30_
*50 _31_
*51 mul_ll\.pp1
*52 mul_ll\.pp2
*53 net1
*54 net10
*55 net11
*56 net12
*57 net13
*58 net14
*59 net15
*60 net16
*61 net2
*62 net3
*63 net4
*64 net5
*65 net6
*66 net7
*67 net8
*68 net9
*69 FILLER_0_15
*70 FILLER_0_3
*71 FILLER_0_36
*72 FILLER_0_41
*73 FILLER_0_55
*74 FILLER_0_67
*75 FILLER_0_79
*76 FILLER_1_15
*77 FILLER_1_3
*78 FILLER_1_38
*79 FILLER_1_48
*80 FILLER_1_74
*81 FILLER_2_21
*82 FILLER_2_27
*83 FILLER_2_35
*84 FILLER_2_43
*85 FILLER_2_47
*86 FILLER_2_68
*87 FILLER_2_7
*88 FILLER_2_76
*89 FILLER_3_11
*90 FILLER_3_24
*91 FILLER_3_29
*92 FILLER_3_3
*93 FILLER_3_38
*94 FILLER_3_50
*95 FILLER_3_57
*96 FILLER_3_70
*97 FILLER_3_78
*98 FILLER_4_13
*99 FILLER_4_19
*100 FILLER_4_26
*101 FILLER_4_34
*102 FILLER_4_46
*103 FILLER_4_51
*104 FILLER_4_61
*105 FILLER_4_7
*106 FILLER_4_73
*107 FILLER_5_13
*108 FILLER_5_25
*109 FILLER_5_37
*110 FILLER_5_44
*111 FILLER_5_55
*112 FILLER_5_62
*113 FILLER_5_74
*114 FILLER_6_11
*115 FILLER_6_20
*116 FILLER_6_29
*117 FILLER_6_3
*118 FILLER_6_45
*119 FILLER_6_57
*120 FILLER_6_65
*121 FILLER_6_77
*122 FILLER_7_15
*123 FILLER_7_27
*124 FILLER_7_39
*125 FILLER_7_51
*126 FILLER_7_55
*127 FILLER_7_57
*128 FILLER_7_61
*129 FILLER_7_7
*130 FILLER_7_76
*131 FILLER_8_15
*132 FILLER_8_27
*133 FILLER_8_29
*134 FILLER_8_3
*135 FILLER_8_41
*136 FILLER_8_53
*137 FILLER_8_61
*138 FILLER_8_70
*139 FILLER_8_78
*140 FILLER_9_19
*141 FILLER_9_27
*142 FILLER_9_29
*143 FILLER_9_41
*144 FILLER_9_53
*145 FILLER_9_57
*146 FILLER_9_69
*147 FILLER_9_7
*148 PHY_EDGE_ROW_0_Left_10
*149 PHY_EDGE_ROW_0_Right_0
*150 PHY_EDGE_ROW_1_Left_11
*151 PHY_EDGE_ROW_1_Right_1
*152 PHY_EDGE_ROW_2_Left_12
*153 PHY_EDGE_ROW_2_Right_2
*154 PHY_EDGE_ROW_3_Left_13
*155 PHY_EDGE_ROW_3_Right_3
*156 PHY_EDGE_ROW_4_Left_14
*157 PHY_EDGE_ROW_4_Right_4
*158 PHY_EDGE_ROW_5_Left_15
*159 PHY_EDGE_ROW_5_Right_5
*160 PHY_EDGE_ROW_6_Left_16
*161 PHY_EDGE_ROW_6_Right_6
*162 PHY_EDGE_ROW_7_Left_17
*163 PHY_EDGE_ROW_7_Right_7
*164 PHY_EDGE_ROW_8_Left_18
*165 PHY_EDGE_ROW_8_Right_8
*166 PHY_EDGE_ROW_9_Left_19
*167 PHY_EDGE_ROW_9_Right_9
*168 TAP_TAPCELL_ROW_0_20
*169 TAP_TAPCELL_ROW_0_21
*170 TAP_TAPCELL_ROW_1_22
*171 TAP_TAPCELL_ROW_2_23
*172 TAP_TAPCELL_ROW_3_24
*173 TAP_TAPCELL_ROW_4_25
*174 TAP_TAPCELL_ROW_5_26
*175 TAP_TAPCELL_ROW_6_27
*176 TAP_TAPCELL_ROW_7_28
*177 TAP_TAPCELL_ROW_8_29
*178 TAP_TAPCELL_ROW_9_30
*179 TAP_TAPCELL_ROW_9_31
*180 _32_
*181 _33_
*182 _34_
*183 _35_
*184 _36_
*185 _37_
*186 _38_
*187 _39_
*188 _40_
*189 _41_
*190 _42_
*191 _43_
*192 _44_
*193 _45_
*194 _46_
*195 _47_
*196 _48_
*197 _49_
*198 _50_
*199 _51_
*200 _52_
*201 _53_
*202 _54_
*203 _55_
*204 _56_
*205 _57_
*206 _58_
*207 _59_
*208 _60_
*209 _61_
*210 _62_
*211 _63_
*212 _64_
*213 _65_
*214 _66_
*215 _67_
*216 _68_
*217 _69_
*218 _70_
*219 _71_
*220 _72_
*221 _73_
*222 input1
*223 input2
*224 input3
*225 input4
*226 input5
*227 input6
*228 input7
*229 input8
*230 output10
*231 output11
*232 output12
*233 output13
*234 output14
*235 output15
*236 output16
*237 output9

*PORTS
A[0] I
A[1] I
A[2] I
A[3] I
B[0] I
B[1] I
B[2] I
B[3] I
P[0] O
P[1] O
P[2] O
P[3] O
P[4] O
P[5] O
P[6] O
P[7] O

*D_NET *1 0.00113667
*CONN
*P A[0] I
*I *222:A I *D sky130_fd_sc_hd__dlymetal6s2s_1
*CAP
1 A[0] 0.0004928
2 *222:A 0.0004928
3 *222:A *182:B 0.000151071
4 *222:A *226:A 0
*RES
1 A[0] *222:A 23.8893 
*END

*D_NET *2 0.000908326
*CONN
*P A[1] I
*I *223:A I *D sky130_fd_sc_hd__buf_1
*CAP
1 A[1] 0.000400495
2 *223:A 0.000400495
3 *223:A *183:A 2.59355e-05
4 *223:A *183:B 8.1401e-05
5 *223:A *183:D 0
6 *223:A *226:A 0
7 *223:A *228:A 0
*RES
1 A[1] *223:A 21.8357 
*END

*D_NET *3 0.000637919
*CONN
*P A[2] I
*I *224:A I *D sky130_fd_sc_hd__dlymetal6s2s_1
*CAP
1 A[2] 0.000303964
2 *224:A 0.000303964
3 *224:A P[7] 0
4 *224:A *225:A 2.99915e-05
5 *224:A *62:12 0
*RES
1 A[2] *224:A 21.0874 
*END

*D_NET *4 0.0007389
*CONN
*P A[3] I
*I *225:A I *D sky130_fd_sc_hd__clkbuf_2
*CAP
1 A[3] 0.000340865
2 *225:A 0.000340865
3 *225:A *227:A 2.71788e-05
4 *225:A *62:12 0
5 *224:A *225:A 2.99915e-05
*RES
1 A[3] *225:A 21.8017 
*END

*D_NET *5 0.000826411
*CONN
*P B[0] I
*I *226:A I *D sky130_fd_sc_hd__dlymetal6s2s_1
*CAP
1 B[0] 0.000413205
2 *226:A 0.000413205
3 *226:A *61:10 0
4 *222:A *226:A 0
5 *223:A *226:A 0
*RES
1 B[0] *226:A 21.9607 
*END

*D_NET *6 0.000667202
*CONN
*P B[1] I
*I *227:A I *D sky130_fd_sc_hd__clkbuf_2
*CAP
1 B[1] 0.000320012
2 *227:A 0.000320012
3 *225:A *227:A 2.71788e-05
*RES
1 B[1] *227:A 21.1946 
*END

*D_NET *7 0.00140991
*CONN
*P B[2] I
*I *228:A I *D sky130_fd_sc_hd__buf_1
*CAP
1 B[2] 0.000567975
2 *228:A 0.000567975
3 *228:A P[2] 9.90431e-05
4 *228:A *231:A 5.71472e-05
5 *228:A *61:24 5.33334e-05
6 *228:A *66:8 6.44345e-05
7 *223:A *228:A 0
*RES
1 B[2] *228:A 25.2464 
*END

*D_NET *8 0.000656274
*CONN
*P B[3] I
*I *229:A I *D sky130_fd_sc_hd__clkbuf_2
*CAP
1 B[3] 0.000281699
2 *229:A 0.000281699
3 *229:A P[3] 9.28756e-05
4 *229:A P[4] 0
*RES
1 B[3] *229:A 19.7128 
*END

*D_NET *9 0.000523955
*CONN
*P P[0] O
*I *237:X O *D sky130_fd_sc_hd__buf_2
*CAP
1 P[0] 0.000173515
2 *237:X 0.000173515
3 P[0] P[1] 8.40493e-05
4 P[0] P[3] 9.28756e-05
5 P[0] *237:A 0
*RES
1 *237:X P[0] 18.4985 
*END

*D_NET *10 0.000501113
*CONN
*P P[1] O
*I *230:X O *D sky130_fd_sc_hd__buf_2
*CAP
1 P[1] 0.000208532
2 *230:X 0.000208532
3 P[0] P[1] 8.40493e-05
*RES
1 *230:X P[1] 18.1949 
*END

*D_NET *11 0.00099427
*CONN
*P P[2] O
*I *231:X O *D sky130_fd_sc_hd__buf_2
*CAP
1 P[2] 0.000447614
2 *231:X 0.000447614
3 *228:A P[2] 9.90431e-05
*RES
1 *231:X P[2] 22.3 
*END

*D_NET *12 0.000648301
*CONN
*P P[3] O
*I *232:X O *D sky130_fd_sc_hd__buf_2
*CAP
1 P[3] 0.000211632
2 *232:X 0.000211632
3 P[3] *232:A 3.92854e-05
4 P[0] P[3] 9.28756e-05
5 *229:A P[3] 9.28756e-05
*RES
1 *232:X P[3] 19.4092 
*END

*D_NET *13 0.000480533
*CONN
*P P[4] O
*I *233:X O *D sky130_fd_sc_hd__buf_2
*CAP
1 P[4] 0.000193829
2 *233:X 0.000193829
3 P[4] P[5] 9.28756e-05
4 *229:A P[4] 0
*RES
1 *233:X P[4] 18.1949 
*END

*D_NET *14 0.000624608
*CONN
*P P[5] O
*I *234:X O *D sky130_fd_sc_hd__buf_2
*CAP
1 P[5] 0.000265866
2 *234:X 0.000265866
3 P[5] *234:A 0
4 P[4] P[5] 9.28756e-05
*RES
1 *234:X P[5] 19.4092 
*END

*D_NET *15 0.000628374
*CONN
*P P[6] O
*I *235:X O *D sky130_fd_sc_hd__buf_2
*CAP
1 P[6] 0.000302889
2 *235:X 0.000302889
3 P[6] P[7] 2.25951e-05
4 P[6] *235:A 0
*RES
1 *235:X P[6] 19.4092 
*END

*D_NET *16 0.000730375
*CONN
*P P[7] O
*I *236:X O *D sky130_fd_sc_hd__buf_2
*CAP
1 P[7] 0.00035389
2 *236:X 0.00035389
3 P[6] P[7] 2.25951e-05
4 *224:A P[7] 0
*RES
1 *236:X P[7] 20.891 
*END

*D_NET *19 0.000910446
*CONN
*I *187:B2 I *D sky130_fd_sc_hd__a2bb2o_1
*I *180:Y O *D sky130_fd_sc_hd__inv_2
*CAP
1 *187:B2 0.000122564
2 *180:Y 0.000122564
3 *187:B2 *181:A 5.5033e-05
4 *187:B2 *184:B 8.67797e-05
5 *187:B2 *184:D 0.000178891
6 *187:B2 *185:B2 9.66977e-05
7 *187:B2 *21:10 9.77423e-05
8 *187:B2 *53:32 8.33813e-05
9 *187:B2 *64:16 4.10843e-05
10 *187:B2 *65:50 2.571e-05
*RES
1 *180:Y *187:B2 22.8321 
*END

*D_NET *20 0.000986762
*CONN
*I *187:A1_N I *D sky130_fd_sc_hd__a2bb2o_1
*I *186:B I *D sky130_fd_sc_hd__or4b_1
*I *183:X O *D sky130_fd_sc_hd__and4_1
*CAP
1 *187:A1_N 0.000158177
2 *186:B 0.000116254
3 *183:X 0
4 *20:4 0.000274431
5 *186:B *231:A 0
6 *186:B *61:24 7.83659e-05
7 *186:B *66:8 9.80173e-05
8 *187:A1_N *184:D 6.05161e-06
9 *187:A1_N *188:B 6.05161e-06
10 *187:A1_N *61:24 6.42338e-05
11 *187:A1_N *64:28 5.03772e-05
12 *187:A1_N *66:8 4.38128e-05
13 *187:A1_N *66:23 9.09898e-05
*RES
1 *183:X *20:4 9.3 
2 *20:4 *186:B 20.2821 
3 *20:4 *187:A1_N 21.425 
*END

*D_NET *21 0.00176791
*CONN
*I *217:B1 I *D sky130_fd_sc_hd__o211ai_1
*I *202:A1 I *D sky130_fd_sc_hd__a211o_1
*I *184:Y O *D sky130_fd_sc_hd__nand4_1
*CAP
1 *217:B1 5.53081e-05
2 *202:A1 9.28798e-05
3 *184:Y 0.000393929
4 *21:10 0.000542117
5 *202:A1 *207:S 2.20608e-05
6 *202:A1 *217:A1 0
7 *202:A1 *217:A2 1.00375e-05
8 *202:A1 *217:C1 3.75052e-05
9 *202:A1 *218:B 0.000122221
10 *217:B1 *217:A2 5.7661e-06
11 *217:B1 *217:C1 4.38128e-05
12 *217:B1 *221:A 2.44318e-05
13 *217:B1 *53:14 0
14 *21:10 *181:A 1.21289e-05
15 *21:10 *217:A2 0
16 *21:10 *217:C1 0.000142856
17 *21:10 *53:14 1.40395e-05
18 *21:10 *53:22 0.000151071
19 *187:B2 *21:10 9.77423e-05
*RES
1 *184:Y *21:10 15.6214 
2 *21:10 *202:A1 20.55 
3 *21:10 *217:B1 10.675 
*END

*D_NET *22 0.00163108
*CONN
*I *187:A2_N I *D sky130_fd_sc_hd__a2bb2o_1
*I *186:C I *D sky130_fd_sc_hd__or4b_1
*I *185:Y O *D sky130_fd_sc_hd__a22oi_1
*CAP
1 *187:A2_N 8.88213e-05
2 *186:C 0.000170503
3 *185:Y 0
4 *22:4 0.000259325
5 *186:C *185:A2 8.18989e-05
6 *186:C *186:A 6.42242e-05
7 *186:C *190:A 1.17968e-05
8 *186:C *28:20 0.000310292
9 *186:C *61:24 0.000102315
10 *186:C *63:36 4.25523e-05
11 *186:C *64:38 0
12 *186:C *65:16 7.08819e-05
13 *186:C *65:25 9.60875e-05
14 *187:A2_N *185:B2 0.000100639
15 *187:A2_N *189:A 5.48715e-05
16 *187:A2_N *65:33 2.07718e-05
17 *187:A2_N *66:23 3.27461e-05
18 *187:A2_N *66:46 0.000123359
*RES
1 *185:Y *22:4 9.3 
2 *22:4 *186:C 24.1571 
3 *22:4 *187:A2_N 20.8536 
*END

*D_NET *23 0.00551781
*CONN
*I *202:A2 I *D sky130_fd_sc_hd__a211o_1
*I *217:C1 I *D sky130_fd_sc_hd__o211ai_1
*I *188:A I *D sky130_fd_sc_hd__and2_1
*I *186:X O *D sky130_fd_sc_hd__or4b_1
*CAP
1 *202:A2 4.60868e-05
2 *217:C1 0.000206113
3 *188:A 0.000317857
4 *186:X 0
5 *23:31 0.00137313
6 *23:4 0.00143879
7 *188:A *188:B 0.000144773
8 *188:A *64:38 1.39841e-05
9 *202:A2 *200:D 9.60939e-05
10 *217:C1 *207:S 5.1588e-05
11 *217:C1 *221:A 0.000144773
12 *217:C1 *28:32 4.15183e-05
13 *217:C1 *53:14 2.44318e-05
14 *217:C1 *53:22 0
15 *23:31 *186:A 3.69697e-05
16 *23:31 *191:B 0
17 *23:31 *201:A1 0.000158456
18 *23:31 *201:A2 9.25014e-06
19 *23:31 *207:S 4.48128e-05
20 *23:31 *28:20 0.000718873
21 *23:31 *28:32 5.13419e-05
22 *23:31 *37:14 0
23 *23:31 *53:30 0.00031407
24 *23:31 *63:36 6.07232e-05
25 *202:A1 *217:C1 3.75052e-05
26 *217:B1 *217:C1 4.38128e-05
27 *21:10 *217:C1 0.000142856
*RES
1 *186:X *23:4 9.3 
2 *23:4 *188:A 14.8 
3 *23:4 *23:31 30.6071 
4 *23:31 *217:C1 18.1214 
5 *23:31 *202:A2 14.7464 
*END

*D_NET *24 0.000865383
*CONN
*I *188:B I *D sky130_fd_sc_hd__and2_1
*I *187:X O *D sky130_fd_sc_hd__a2bb2o_1
*CAP
1 *188:B 0.000243916
2 *187:X 0.000243916
3 *188:B *184:D 0
4 *188:B *64:28 1.52522e-05
5 *188:B *64:38 0.000211473
6 *187:A1_N *188:B 6.05161e-06
7 *188:A *188:B 0.000144773
*RES
1 *187:X *188:B 24.1 
*END

*D_NET *25 0.00210967
*CONN
*I *208:A1 I *D sky130_fd_sc_hd__a21boi_1
*I *196:A I *D sky130_fd_sc_hd__and3_1
*I *197:B1 I *D sky130_fd_sc_hd__a21oi_1
*I *189:X O *D sky130_fd_sc_hd__and2_1
*CAP
1 *208:A1 0
2 *196:A 1.97835e-05
3 *197:B1 9.16495e-05
4 *189:X 0.000479774
5 *25:12 0.000591207
6 *196:A *196:C 4.18895e-05
7 *196:A *31:20 5.52302e-05
8 *196:A *43:10 8.46829e-05
9 *197:B1 *31:20 0.000226867
10 *197:B1 *43:10 5.49489e-05
11 *25:12 *189:A 0.000186765
12 *25:12 *190:A 0
13 *25:12 *199:B1 7.78162e-05
14 *25:12 *30:12 0.000150847
15 *25:12 *62:48 4.82069e-05
*RES
1 *189:X *25:12 27.8893 
2 *25:12 *197:B1 11.4786 
3 *25:12 *196:A 10.2464 
4 *25:12 *208:A1 9.3 
*END

*D_NET *26 0.000780307
*CONN
*I *194:A I *D sky130_fd_sc_hd__or3_1
*I *195:B1 I *D sky130_fd_sc_hd__o21ai_1
*I *190:Y O *D sky130_fd_sc_hd__nand2_1
*CAP
1 *194:A 3.08676e-05
2 *195:B1 2.17614e-05
3 *190:Y 9.7834e-05
4 *26:10 0.000150463
5 *194:A *194:B 9.90431e-05
6 *194:A *194:C 8.66063e-05
7 *194:A *62:42 2.44318e-05
8 *195:B1 *194:B 9.71197e-05
9 *195:B1 *194:C 9.71197e-05
10 *26:10 *62:48 0
11 *26:10 *67:58 7.50601e-05
*RES
1 *190:Y *26:10 20.2464 
2 *26:10 *195:B1 10.2464 
3 *26:10 *194:A 10.6571 
*END

*D_NET *27 0.00242173
*CONN
*I *219:A2 I *D sky130_fd_sc_hd__a22o_1
*I *194:B I *D sky130_fd_sc_hd__or3_1
*I *195:A1 I *D sky130_fd_sc_hd__o21ai_1
*I *191:X O *D sky130_fd_sc_hd__and4_1
*CAP
1 *219:A2 0.000453695
2 *194:B 0.000172059
3 *195:A1 0
4 *191:X 0.00012216
5 *27:19 0.000653783
6 *27:10 0.000150188
7 *194:B *194:C 4.43256e-05
8 *194:B *62:42 1.21258e-05
9 *194:B *67:58 5.33005e-05
10 *219:A2 *219:B2 7.77652e-05
11 *219:A2 *31:12 0.000138806
12 *219:A2 *47:10 0
13 *219:A2 *67:58 3.17148e-05
14 *27:10 *29:10 0.000125731
15 *27:10 *62:42 3.34672e-05
16 *27:10 *63:23 5.71472e-05
17 *27:10 *63:36 5.71472e-05
18 *27:19 *29:10 1.02504e-05
19 *27:19 *67:58 3.19058e-05
20 *194:A *194:B 9.90431e-05
21 *195:B1 *194:B 9.71197e-05
*RES
1 *191:X *27:10 16.3893 
2 *27:10 *195:A1 13.8 
3 *27:10 *27:19 0.732143 
4 *27:19 *194:B 17.2286 
5 *27:19 *219:A2 21.3 
*END

*D_NET *28 0.00649117
*CONN
*I *213:C I *D sky130_fd_sc_hd__and3_1
*I *201:B1 I *D sky130_fd_sc_hd__a22oi_1
*I *200:C I *D sky130_fd_sc_hd__and4_1
*I *207:S I *D sky130_fd_sc_hd__mux2_1
*I *192:Y O *D sky130_fd_sc_hd__nand4_2
*CAP
1 *213:C 0.000178817
2 *201:B1 0
3 *200:C 0.000279039
4 *207:S 0.000309886
5 *192:Y 0
6 *28:32 0.000814133
7 *28:20 0.000690409
8 *28:4 0.000644017
9 *200:C *200:D 0.000350143
10 *207:S *201:A2 1.78353e-05
11 *207:S *207:A1 2.44318e-05
12 *207:S *218:B 7.9255e-05
13 *207:S *36:12 0
14 *207:S *38:12 0.000128154
15 *207:S *67:14 3.17148e-05
16 *207:S *67:16 5.33005e-05
17 *207:S *67:27 5.03787e-05
18 *213:C *191:B 6.42242e-05
19 *213:C *192:D 0
20 *213:C *62:12 0
21 *213:C *63:6 1.95435e-05
22 *213:C *63:12 0.000125717
23 *213:C *63:36 0
24 *213:C *65:78 5.10822e-05
25 *28:20 *180:A 0.000226867
26 *28:20 *199:B1 5.52302e-05
27 *28:20 *200:D 8.1579e-05
28 *28:20 *201:A1 9.90831e-05
29 *28:20 *201:B2 1.04232e-05
30 *28:20 *35:6 5.47936e-05
31 *28:20 *53:30 0.00031407
32 *28:20 *63:64 2.92524e-05
33 *28:20 *65:12 0.000205412
34 *28:20 *65:16 8.68625e-05
35 *28:20 *65:25 6.7224e-05
36 *28:32 *200:D 9.41642e-05
37 *28:32 *37:14 8.6229e-06
38 *28:32 *53:22 5.01876e-06
39 *186:C *28:20 0.000310292
40 *202:A1 *207:S 2.20608e-05
41 *217:C1 *207:S 5.1588e-05
42 *217:C1 *28:32 4.15183e-05
43 *23:31 *207:S 4.48128e-05
44 *23:31 *28:20 0.000718873
45 *23:31 *28:32 5.13419e-05
*RES
1 *192:Y *28:4 9.3 
2 *28:4 *28:20 16.1786 
3 *28:20 *28:32 12.1607 
4 *28:32 *207:S 25.55 
5 *28:32 *200:C 13.1214 
6 *28:20 *201:B1 9.3 
7 *28:4 *213:C 21.9607 
*END

*D_NET *29 0.00090913
*CONN
*I *194:C I *D sky130_fd_sc_hd__or3_1
*I *195:A2 I *D sky130_fd_sc_hd__o21ai_1
*I *193:Y O *D sky130_fd_sc_hd__nand2_1
*CAP
1 *194:C 5.57704e-05
2 *195:A2 0
3 *193:Y 5.04613e-05
4 *29:10 0.000106232
5 *194:C *62:42 0.000268409
6 *29:10 *67:58 6.42242e-05
7 *194:A *194:C 8.66063e-05
8 *194:B *194:C 4.43256e-05
9 *195:B1 *194:C 9.71197e-05
10 *27:10 *29:10 0.000125731
11 *27:19 *29:10 1.02504e-05
*RES
1 *193:Y *29:10 19.9429 
2 *29:10 *195:A2 9.3 
3 *29:10 *194:C 11.8893 
*END

*D_NET *30 0.00242098
*CONN
*I *196:B I *D sky130_fd_sc_hd__and3_1
*I *208:B1_N I *D sky130_fd_sc_hd__a21boi_1
*I *197:A1 I *D sky130_fd_sc_hd__a21oi_1
*I *194:X O *D sky130_fd_sc_hd__or3_1
*CAP
1 *196:B 7.71437e-05
2 *208:B1_N 0
3 *197:A1 4.92463e-05
4 *194:X 0.000453245
5 *30:14 8.7995e-05
6 *30:12 0.000569137
7 *196:B *196:C 6.61819e-05
8 *196:B *49:14 9.66977e-05
9 *197:A1 *31:20 0.000142478
10 *197:A1 *49:14 8.09302e-05
11 *30:12 *206:B 7.97641e-05
12 *30:12 *62:42 2.1692e-05
13 *30:14 *196:C 5.52238e-05
14 *30:14 *31:20 0.000217649
15 *30:14 *49:14 0.000272744
16 *25:12 *30:12 0.000150847
*RES
1 *194:X *30:12 25.675 
2 *30:12 *30:14 2.58929 
3 *30:14 *197:A1 11.0857 
4 *30:14 *208:B1_N 9.3 
5 *30:12 *196:B 19.9786 
*END

*D_NET *31 0.00212323
*CONN
*I *197:A2 I *D sky130_fd_sc_hd__a21oi_1
*I *196:C I *D sky130_fd_sc_hd__and3_1
*I *208:A2 I *D sky130_fd_sc_hd__a21boi_1
*I *195:Y O *D sky130_fd_sc_hd__o21ai_1
*CAP
1 *197:A2 0
2 *196:C 4.66281e-05
3 *208:A2 0
4 *195:Y 0.000298831
5 *31:20 0.000178315
6 *31:12 0.000430518
7 *196:C *43:10 9.68986e-05
8 *196:C *49:14 2.77171e-06
9 *31:12 *198:B 0
10 *31:12 *216:A 0
11 *31:12 *47:10 0
12 *31:12 *49:14 0.000106467
13 *31:12 *67:58 9.25014e-06
14 *31:20 *219:B2 0
15 *31:20 *49:14 9.22103e-06
16 *196:A *196:C 4.18895e-05
17 *196:A *31:20 5.52302e-05
18 *196:B *196:C 6.61819e-05
19 *197:A1 *31:20 0.000142478
20 *197:B1 *31:20 0.000226867
21 *219:A2 *31:12 0.000138806
22 *30:14 *196:C 5.52238e-05
23 *30:14 *31:20 0.000217649
*RES
1 *195:Y *31:12 24.9607 
2 *31:12 *31:20 4.80357 
3 *31:20 *208:A2 9.3 
4 *31:20 *196:C 11.2821 
5 *31:12 *197:A2 9.3 
*END

*D_NET *32 0.000503615
*CONN
*I *198:A I *D sky130_fd_sc_hd__nor2_1
*I *196:X O *D sky130_fd_sc_hd__and3_1
*CAP
1 *198:A 0.000187778
2 *196:X 0.000187778
3 *198:A *34:12 9.99853e-05
4 *198:A *43:10 2.80742e-05
*RES
1 *196:X *198:A 30.725 
*END

*D_NET *33 0.000832644
*CONN
*I *198:B I *D sky130_fd_sc_hd__nor2_1
*I *197:Y O *D sky130_fd_sc_hd__a21oi_1
*CAP
1 *198:B 0.000416322
2 *197:Y 0.000416322
3 *31:12 *198:B 0
*RES
1 *197:Y *198:B 33.8679 
*END

*D_NET *34 0.00319978
*CONN
*I *205:A I *D sky130_fd_sc_hd__xnor2_1
*I *204:B I *D sky130_fd_sc_hd__and2b_1
*I *215:A1 I *D sky130_fd_sc_hd__a31o_1
*I *198:Y O *D sky130_fd_sc_hd__nor2_1
*CAP
1 *205:A 8.57789e-05
2 *204:B 0.000359202
3 *215:A1 0
4 *198:Y 0.00039408
5 *34:25 0.000707164
6 *34:12 0.000656264
7 *204:B *204:A_N 3.57315e-05
8 *204:B *233:A 4.59429e-05
9 *204:B *39:12 5.33433e-05
10 *205:A *204:A_N 0
11 *205:A *39:12 5.52302e-05
12 *34:12 *209:A 2.14658e-05
13 *34:12 *211:A 0
14 *34:12 *214:B1 0
15 *34:12 *36:12 0
16 *34:12 *42:14 0.000142856
17 *34:12 *43:27 0.000125724
18 *34:12 *45:8 0.000125724
19 *34:25 *211:A 0
20 *34:25 *211:B 0.000278138
21 *34:25 *45:8 1.31516e-05
22 *198:A *34:12 9.99853e-05
*RES
1 *198:Y *34:12 21.5321 
2 *34:12 *215:A1 13.8 
3 *34:12 *34:25 10.0536 
4 *34:25 *204:B 14.6929 
5 *34:25 *205:A 11.4964 
*END

*D_NET *35 0.00189916
*CONN
*I *200:D I *D sky130_fd_sc_hd__and4_1
*I *201:B2 I *D sky130_fd_sc_hd__a22oi_1
*I *199:X O *D sky130_fd_sc_hd__a22o_1
*CAP
1 *200:D 0.00032654
2 *201:B2 1.99857e-05
3 *199:X 0.00019822
4 *35:6 0.000544746
5 *200:D *201:A1 3.44046e-05
6 *200:D *201:A2 1.4363e-05
7 *35:6 *180:A 7.37062e-05
8 *200:C *200:D 0.000350143
9 *202:A2 *200:D 9.60939e-05
10 *28:20 *200:D 8.1579e-05
11 *28:20 *201:B2 1.04232e-05
12 *28:20 *35:6 5.47936e-05
13 *28:32 *200:D 9.41642e-05
*RES
1 *199:X *35:6 11.8893 
2 *35:6 *201:B2 9.72857 
3 *35:6 *200:D 16.1393 
*END

*D_NET *36 0.00268073
*CONN
*I *217:A1 I *D sky130_fd_sc_hd__o211ai_1
*I *202:B1 I *D sky130_fd_sc_hd__a211o_1
*I *203:A_N I *D sky130_fd_sc_hd__and2b_1
*I *215:A2 I *D sky130_fd_sc_hd__a31o_1
*I *200:X O *D sky130_fd_sc_hd__and4_1
*CAP
1 *217:A1 0.000167651
2 *202:B1 8.39971e-05
3 *203:A_N 0
4 *215:A2 0.000137604
5 *200:X 0
6 *36:12 0.000531266
7 *36:6 0.00064531
8 *202:B1 *202:C1 9.54798e-06
9 *202:B1 *218:B 8.37327e-05
10 *215:A2 *214:A1 5.30209e-05
11 *215:A2 *215:B1 3.67257e-05
12 *215:A2 *43:27 8.90371e-05
13 *217:A1 *182:B 4.1331e-06
14 *217:A1 *200:A 0
15 *217:A1 *200:B 3.42457e-05
16 *217:A1 *202:C1 9.60337e-06
17 *217:A1 *217:A2 6.49979e-05
18 *217:A1 *237:A 0
19 *36:12 *200:B 0
20 *36:12 *211:A 0.000101545
21 *36:12 *214:A1 2.22891e-05
22 *36:12 *218:B 4.8476e-05
23 *36:12 *38:18 0.000557552
24 *36:12 *43:27 0
25 *36:12 *67:14 0
26 *202:A1 *217:A1 0
27 *207:S *36:12 0
28 *34:12 *36:12 0
*RES
1 *200:X *36:6 13.8 
2 *36:6 *36:12 14.0714 
3 *36:12 *215:A2 12.3179 
4 *36:12 *203:A_N 9.3 
5 *36:6 *202:B1 15.7821 
6 *36:6 *217:A1 17.4964 
*END

*D_NET *37 0.00158305
*CONN
*I *202:C1 I *D sky130_fd_sc_hd__a211o_1
*I *217:A2 I *D sky130_fd_sc_hd__o211ai_1
*I *201:Y O *D sky130_fd_sc_hd__a22oi_1
*CAP
1 *202:C1 7.70138e-06
2 *217:A2 0.000122883
3 *201:Y 0.000554414
4 *37:14 0.000684998
5 *202:C1 *218:B 9.86249e-07
6 *217:A2 *218:B 5.31915e-05
7 *217:A2 *53:89 2.89114e-05
8 *37:14 *53:22 2.13884e-05
9 *202:A1 *217:A2 1.00375e-05
10 *202:B1 *202:C1 9.54798e-06
11 *217:A1 *202:C1 9.60337e-06
12 *217:A1 *217:A2 6.49979e-05
13 *217:B1 *217:A2 5.7661e-06
14 *21:10 *217:A2 0
15 *23:31 *37:14 0
16 *28:32 *37:14 8.6229e-06
*RES
1 *201:Y *37:14 22.0401 
2 *37:14 *217:A2 16.5589 
3 *37:14 *202:C1 14.0768 
*END

*D_NET *38 0.00399909
*CONN
*I *218:A I *D sky130_fd_sc_hd__and2_1
*I *214:A1 I *D sky130_fd_sc_hd__a21oi_1
*I *203:B I *D sky130_fd_sc_hd__and2b_1
*I *202:X O *D sky130_fd_sc_hd__a211o_1
*CAP
1 *218:A 5.46549e-05
2 *214:A1 0.000582991
3 *203:B 0
4 *202:X 0.000235983
5 *38:18 0.000833019
6 *38:12 0.000540665
7 *214:A1 *211:B 4.56437e-05
8 *214:A1 *214:B1 1.76135e-05
9 *214:A1 *215:B1 0.000180777
10 *214:A1 *43:27 9.7659e-05
11 *214:A1 *45:8 8.08022e-05
12 *218:A *218:B 0.000140933
13 *38:12 *201:A2 6.97972e-05
14 *38:12 *218:B 0.000181796
15 *38:18 *200:B 0.00013438
16 *38:18 *211:A 4.13573e-05
17 *207:S *38:12 0.000128154
18 *215:A2 *214:A1 5.30209e-05
19 *36:12 *214:A1 2.22891e-05
20 *36:12 *38:18 0.000557552
*RES
1 *202:X *38:12 23.3536 
2 *38:12 *38:18 17.0179 
3 *38:18 *203:B 9.3 
4 *38:18 *214:A1 26.7821 
5 *38:12 *218:A 10.6571 
*END

*D_NET *39 0.0011133
*CONN
*I *204:A_N I *D sky130_fd_sc_hd__and2b_1
*I *205:B I *D sky130_fd_sc_hd__xnor2_1
*I *203:X O *D sky130_fd_sc_hd__and2b_1
*CAP
1 *204:A_N 0.000209686
2 *205:B 0
3 *203:X 0.000129854
4 *39:12 0.00033954
5 *204:A_N *233:A 0.000289912
6 *39:12 *211:A 0
7 *204:B *204:A_N 3.57315e-05
8 *204:B *39:12 5.33433e-05
9 *205:A *204:A_N 0
10 *205:A *39:12 5.52302e-05
*RES
1 *203:X *39:12 20.8893 
2 *39:12 *205:B 9.3 
3 *39:12 *204:A_N 13.8536 
*END

*D_NET *40 0.000461152
*CONN
*I *212:A I *D sky130_fd_sc_hd__xnor2_1
*I *204:X O *D sky130_fd_sc_hd__and2b_1
*CAP
1 *212:A 0.000230576
2 *204:X 0.000230576
3 *212:A *212:B 0
*RES
1 *204:X *212:A 31.4214 
*END

*D_NET *41 0.000645605
*CONN
*I *207:A1 I *D sky130_fd_sc_hd__mux2_1
*I *206:Y O *D sky130_fd_sc_hd__nand2_1
*CAP
1 *207:A1 0.000168796
2 *206:Y 0.000168796
3 *207:A1 *206:A 9.90367e-05
4 *207:A1 *42:10 1.32552e-05
5 *207:A1 *67:16 0.000171289
6 *207:S *207:A1 2.44318e-05
*RES
1 *206:Y *207:A1 22.0107 
*END

*D_NET *42 0.00155211
*CONN
*I *214:B1 I *D sky130_fd_sc_hd__a21oi_1
*I *209:A I *D sky130_fd_sc_hd__or2_1
*I *210:A I *D sky130_fd_sc_hd__nand2_1
*I *207:X O *D sky130_fd_sc_hd__mux2_1
*CAP
1 *214:B1 0.000101584
2 *209:A 0.000177678
3 *210:A 0
4 *207:X 0.000226
5 *42:14 0.000230394
6 *42:10 0.0003803
7 *209:A *209:B 0.000142856
8 *209:A *67:14 3.48705e-05
9 *214:B1 *45:8 2.28335e-05
10 *42:10 *206:A 3.67142e-05
11 *42:10 *67:14 0
12 *42:10 *67:16 3.69047e-06
13 *207:A1 *42:10 1.32552e-05
14 *214:A1 *214:B1 1.76135e-05
15 *34:12 *209:A 2.14658e-05
16 *34:12 *214:B1 0
17 *34:12 *42:14 0.000142856
*RES
1 *207:X *42:10 17.1036 
2 *42:10 *42:14 5.85714 
3 *42:14 *210:A 9.3 
4 *42:14 *209:A 12.7286 
5 *42:10 *214:B1 15.7464 
*END

*D_NET *43 0.00211448
*CONN
*I *209:B I *D sky130_fd_sc_hd__or2_1
*I *210:B I *D sky130_fd_sc_hd__nand2_1
*I *214:A2 I *D sky130_fd_sc_hd__a21oi_1
*I *208:Y O *D sky130_fd_sc_hd__a21boi_1
*CAP
1 *209:B 4.33899e-05
2 *210:B 0
3 *214:A2 0
4 *208:Y 0.000278729
5 *43:27 0.000307801
6 *43:10 0.000543139
7 *209:B *67:14 2.89114e-05
8 *43:10 *49:14 6.13636e-05
9 *43:27 *211:A 0
10 *43:27 *215:B1 7.89623e-05
11 *43:27 *49:14 5.23057e-05
12 *196:A *43:10 8.46829e-05
13 *196:C *43:10 9.68986e-05
14 *197:B1 *43:10 5.49489e-05
15 *198:A *43:10 2.80742e-05
16 *209:A *209:B 0.000142856
17 *214:A1 *43:27 9.7659e-05
18 *215:A2 *43:27 8.90371e-05
19 *34:12 *43:27 0.000125724
20 *36:12 *43:27 0
*RES
1 *208:Y *43:10 13.9786 
2 *43:10 *214:A2 9.3 
3 *43:10 *43:27 14.9107 
4 *43:27 *210:B 9.3 
5 *43:27 *209:B 10.6571 
*END

*D_NET *44 0.000722753
*CONN
*I *211:A I *D sky130_fd_sc_hd__nand2_1
*I *209:X O *D sky130_fd_sc_hd__or2_1
*CAP
1 *211:A 0.00028291
2 *209:X 0.00028291
3 *211:A *211:B 0
4 *211:A *67:14 1.40306e-05
5 *34:12 *211:A 0
6 *34:25 *211:A 0
7 *36:12 *211:A 0.000101545
8 *38:18 *211:A 4.13573e-05
9 *39:12 *211:A 0
10 *43:27 *211:A 0
*RES
1 *209:X *211:A 32.5107 
*END

*D_NET *45 0.00120526
*CONN
*I *211:B I *D sky130_fd_sc_hd__nand2_1
*I *215:A3 I *D sky130_fd_sc_hd__a31o_1
*I *210:Y O *D sky130_fd_sc_hd__nand2_1
*CAP
1 *211:B 0.000232066
2 *215:A3 0
3 *210:Y 8.74159e-05
4 *45:8 0.000319482
5 *211:A *211:B 0
6 *214:A1 *211:B 4.56437e-05
7 *214:A1 *45:8 8.08022e-05
8 *214:B1 *45:8 2.28335e-05
9 *34:12 *45:8 0.000125724
10 *34:25 *211:B 0.000278138
11 *34:25 *45:8 1.31516e-05
*RES
1 *210:Y *45:8 15.7464 
2 *45:8 *215:A3 13.8 
3 *45:8 *211:B 18.9429 
*END

*D_NET *46 0.000446491
*CONN
*I *212:B I *D sky130_fd_sc_hd__xnor2_1
*I *211:Y O *D sky130_fd_sc_hd__nand2_1
*CAP
1 *212:B 0.000223245
2 *211:Y 0.000223245
3 *212:A *212:B 0
*RES
1 *211:Y *212:B 31.3143 
*END

*D_NET *47 0.00159546
*CONN
*I *216:A I *D sky130_fd_sc_hd__xor2_1
*I *219:B1 I *D sky130_fd_sc_hd__a22o_1
*I *213:X O *D sky130_fd_sc_hd__and3_1
*CAP
1 *216:A 0.000254847
2 *219:B1 0
3 *213:X 0.000245457
4 *47:10 0.000500304
5 *216:A *216:B 0.000186662
6 *216:A *235:A 0
7 *47:10 *213:A 3.69047e-06
8 *47:10 *219:A1 0.00029513
9 *47:10 *63:6 5.41494e-05
10 *47:10 *67:58 5.52238e-05
11 *219:A2 *47:10 0
12 *31:12 *216:A 0
13 *31:12 *47:10 0
*RES
1 *213:X *47:10 19.5321 
2 *47:10 *219:B1 13.8 
3 *47:10 *216:A 18.8357 
*END

*D_NET *48 0.000557439
*CONN
*I *215:B1 I *D sky130_fd_sc_hd__a31o_1
*I *214:Y O *D sky130_fd_sc_hd__a21oi_1
*CAP
1 *215:B1 0.000101914
2 *214:Y 0.000101914
3 *215:B1 *49:14 5.71472e-05
4 *214:A1 *215:B1 0.000180777
5 *215:A2 *215:B1 3.67257e-05
6 *43:27 *215:B1 7.89623e-05
*RES
1 *214:Y *215:B1 21.6179 
*END

*D_NET *49 0.00347289
*CONN
*I *216:B I *D sky130_fd_sc_hd__xor2_1
*I *219:B2 I *D sky130_fd_sc_hd__a22o_1
*I *215:X O *D sky130_fd_sc_hd__a31o_1
*CAP
1 *216:B 0.000331719
2 *219:B2 0.00013083
3 *215:X 0.000771857
4 *49:14 0.00123441
5 *196:B *49:14 9.66977e-05
6 *196:C *49:14 2.77171e-06
7 *197:A1 *49:14 8.09302e-05
8 *215:B1 *49:14 5.71472e-05
9 *216:A *216:B 0.000186662
10 *219:A2 *219:B2 7.77652e-05
11 *30:14 *49:14 0.000272744
12 *31:12 *49:14 0.000106467
13 *31:20 *219:B2 0
14 *31:20 *49:14 9.22103e-06
15 *43:10 *49:14 6.13636e-05
16 *43:27 *49:14 5.23057e-05
*RES
1 *215:X *49:14 21.6214 
2 *49:14 *219:B2 12.1036 
3 *49:14 *216:B 24.175 
*END

*D_NET *50 0.00137968
*CONN
*I *218:B I *D sky130_fd_sc_hd__and2_1
*I *217:Y O *D sky130_fd_sc_hd__o211ai_1
*CAP
1 *218:B 0.000334546
2 *217:Y 0.000334546
3 *202:A1 *218:B 0.000122221
4 *202:B1 *218:B 8.37327e-05
5 *202:C1 *218:B 9.86249e-07
6 *207:S *218:B 7.9255e-05
7 *217:A2 *218:B 5.31915e-05
8 *218:A *218:B 0.000140933
9 *36:12 *218:B 4.8476e-05
10 *38:12 *218:B 0.000181796
*RES
1 *217:Y *218:B 35.7964 
*END

*D_NET *51 7.46845e-05
*CONN
*I *220:A I *D sky130_fd_sc_hd__clkbuf_1
*I *182:X O *D sky130_fd_sc_hd__and2_1
*CAP
1 *220:A 2.14084e-05
2 *182:X 2.14084e-05
3 *220:A *221:A 3.18676e-05
*RES
1 *182:X *220:A 19.1357 
*END

*D_NET *52 0.00133433
*CONN
*I *221:A I *D sky130_fd_sc_hd__clkbuf_1
*I *181:X O *D sky130_fd_sc_hd__and2_1
*CAP
1 *221:A 0.000315715
2 *181:X 0.000315715
3 *221:A *200:A 0.000128496
4 *221:A *230:A 0
5 *221:A *53:14 0.000230475
6 *221:A *53:89 0.000142856
7 *217:B1 *221:A 2.44318e-05
8 *217:C1 *221:A 0.000144773
9 *220:A *221:A 3.18676e-05
*RES
1 *181:X *221:A 26.1536 
*END

*D_NET *53 0.0066768
*CONN
*I *200:A I *D sky130_fd_sc_hd__and4_1
*I *182:A I *D sky130_fd_sc_hd__and2_1
*I *181:B I *D sky130_fd_sc_hd__and2_1
*I *201:A1 I *D sky130_fd_sc_hd__a22oi_1
*I *184:B I *D sky130_fd_sc_hd__nand4_1
*I *183:B I *D sky130_fd_sc_hd__and4_1
*I *185:B2 I *D sky130_fd_sc_hd__a22oi_1
*I *222:X O *D sky130_fd_sc_hd__dlymetal6s2s_1
*CAP
1 *200:A 0.000231775
2 *182:A 0
3 *181:B 0
4 *201:A1 7.87337e-05
5 *184:B 6.41741e-05
6 *183:B 0.000358405
7 *185:B2 0.000178842
8 *222:X 0.000104245
9 *53:89 0.000324992
10 *53:32 0.000609908
11 *53:30 0.000324837
12 *53:22 0.000494529
13 *53:14 0.000484845
14 *53:8 0.000454513
15 *183:B *183:A 8.36101e-05
16 *183:B *183:D 0
17 *183:B *184:C 4.038e-06
18 *183:B *199:A1 7.6644e-05
19 *183:B *61:10 3.38229e-05
20 *183:B *61:18 2.37349e-05
21 *183:B *65:33 4.42631e-05
22 *183:B *66:23 0
23 *185:B2 *184:D 7.17443e-05
24 *185:B2 *65:33 4.63699e-05
25 *200:A *182:B 3.34366e-05
26 *200:A *237:A 0
27 *201:A1 *201:A2 3.39311e-05
28 *53:8 *182:B 0
29 *53:22 *180:A 7.94185e-05
30 *53:22 *181:A 0.000188586
31 *53:30 *199:A1 0.000100831
32 *53:30 *199:B1 3.0898e-05
33 *187:A2_N *185:B2 0.000100639
34 *187:B2 *184:B 8.67797e-05
35 *187:B2 *185:B2 9.66977e-05
36 *187:B2 *53:32 8.33813e-05
37 *200:D *201:A1 3.44046e-05
38 *217:A1 *200:A 0
39 *217:A2 *53:89 2.89114e-05
40 *217:B1 *53:14 0
41 *217:C1 *53:14 2.44318e-05
42 *217:C1 *53:22 0
43 *221:A *200:A 0.000128496
44 *221:A *53:14 0.000230475
45 *221:A *53:89 0.000142856
46 *223:A *183:B 8.1401e-05
47 *21:10 *53:14 1.40395e-05
48 *21:10 *53:22 0.000151071
49 *23:31 *201:A1 0.000158456
50 *23:31 *53:30 0.00031407
51 *28:20 *201:A1 9.90831e-05
52 *28:20 *53:30 0.00031407
53 *28:32 *53:22 5.01876e-06
54 *37:14 *53:22 2.13884e-05
*RES
1 *222:X *53:8 15.4429 
2 *53:8 *53:14 8.53571 
3 *53:14 *53:22 14.4464 
4 *53:22 *53:30 14.25 
5 *53:30 *53:32 0.946429 
6 *53:32 *185:B2 21.4071 
7 *53:32 *183:B 24.55 
8 *53:30 *184:B 10.2464 
9 *53:22 *201:A1 12.3536 
10 *53:14 *181:B 9.3 
11 *53:8 *53:89 6.58929 
12 *53:89 *182:A 9.3 
13 *53:89 *200:A 22.4429 
*END

*D_NET *54 0.000286881
*CONN
*I *230:A I *D sky130_fd_sc_hd__buf_2
*I *221:X O *D sky130_fd_sc_hd__clkbuf_1
*CAP
1 *230:A 0.000143441
2 *221:X 0.000143441
3 *221:A *230:A 0
*RES
1 *221:X *230:A 21.1 
*END

*D_NET *55 0.000593191
*CONN
*I *231:A I *D sky130_fd_sc_hd__buf_2
*I *188:X O *D sky130_fd_sc_hd__and2_1
*CAP
1 *231:A 0.000204048
2 *188:X 0.000204048
3 *231:A *183:D 0
4 *231:A *61:24 0