*SPEF "ieee 1481-1999"
*DESIGN "mult8_2bits_1op_e17688"
*DATE "15:13:46 Tuesday September 16, 2025"
*VENDOR "The OpenROAD Project"
*PROGRAM "OpenROAD"
*VERSION "edf00dff99f6c40d67a30c0e22a8191c5d2ed9d6"
*DESIGN_FLOW "NAME_SCOPE LOCAL" "PIN_CAP NONE"
*DIVIDER /
*DELIMITER :
*BUS_DELIMITER []
*T_UNIT 1 NS
*C_UNIT 1 PF
*R_UNIT 1 OHM
*L_UNIT 1 HENRY

*NAME_MAP
*1 A[0]
*2 A[1]
*3 A[2]
*4 A[3]
*5 A[4]
*6 A[5]
*7 A[6]
*8 A[7]
*9 B[0]
*10 B[1]
*11 B[2]
*12 B[3]
*13 B[4]
*14 B[5]
*15 B[6]
*16 B[7]
*17 P[0]
*18 P[10]
*19 P[11]
*20 P[12]
*21 P[13]
*22 P[14]
*23 P[15]
*24 P[1]
*25 P[2]
*26 P[3]
*27 P[4]
*28 P[5]
*29 P[6]
*30 P[7]
*31 P[8]
*32 P[9]
*35 _000_
*36 _001_
*37 _002_
*38 _003_
*39 _004_
*40 _005_
*41 _006_
*42 _007_
*43 _008_
*44 _009_
*45 _010_
*46 _011_
*47 _012_
*48 _013_
*49 _014_
*50 _015_
*51 _016_
*52 _017_
*53 _018_
*54 _019_
*55 _020_
*56 _021_
*57 _022_
*58 _023_
*59 _024_
*60 _025_
*61 _026_
*62 _027_
*63 _028_
*64 _029_
*65 _030_
*66 _031_
*67 _032_
*68 _033_
*69 _034_
*70 _035_
*71 _036_
*72 _037_
*73 _038_
*74 _039_
*75 _040_
*76 _041_
*77 _042_
*78 _043_
*79 _044_
*80 _045_
*81 _046_
*82 _047_
*83 _048_
*84 _049_
*85 _050_
*86 _051_
*87 _052_
*88 _053_
*89 _054_
*90 _055_
*91 _056_
*92 _057_
*93 _058_
*94 _059_
*95 _060_
*96 _061_
*97 _062_
*98 _063_
*99 _064_
*100 _065_
*101 _066_
*102 _067_
*103 _068_
*104 _069_
*105 _070_
*106 _071_
*107 _072_
*108 _073_
*109 _074_
*110 _075_
*111 _076_
*112 _077_
*113 _078_
*114 _079_
*115 _080_
*116 _081_
*117 _082_
*118 _083_
*119 _084_
*120 _085_
*121 _086_
*122 _087_
*123 _088_
*124 _089_
*125 _090_
*126 _091_
*127 _092_
*128 _093_
*129 _094_
*130 _095_
*131 _096_
*132 _097_
*133 _098_
*134 _099_
*135 _100_
*136 _101_
*137 _102_
*138 _103_
*139 _104_
*140 _105_
*141 _106_
*142 _107_
*143 _108_
*144 _109_
*145 _110_
*146 _111_
*147 _112_
*148 _113_
*149 _114_
*150 _115_
*151 _116_
*152 _117_
*153 _118_
*154 _119_
*155 _120_
*156 _121_
*157 _122_
*158 _123_
*159 _124_
*160 _125_
*161 _126_
*162 _127_
*163 _128_
*164 _129_
*165 _130_
*166 _131_
*167 _132_
*168 _133_
*169 _134_
*170 _135_
*171 _136_
*172 _137_
*173 _138_
*174 _139_
*175 _140_
*176 _141_
*177 _142_
*178 _143_
*179 _144_
*180 _145_
*181 _146_
*182 _147_
*183 _148_
*184 _149_
*185 _150_
*186 _151_
*187 _152_
*188 _153_
*189 _154_
*190 _155_
*191 _156_
*192 _157_
*193 _158_
*194 _159_
*195 _160_
*196 _161_
*197 _162_
*198 _163_
*199 _164_
*200 _165_
*201 _166_
*202 _167_
*203 _168_
*204 _169_
*205 _170_
*206 _171_
*207 _172_
*208 _173_
*209 _174_
*210 _175_
*211 _176_
*212 _177_
*213 _178_
*214 _179_
*215 _180_
*216 _181_
*217 _182_
*218 _183_
*219 _184_
*220 _185_
*221 _186_
*222 _187_
*223 _188_
*224 _189_
*225 _190_
*226 _191_
*227 _192_
*228 _193_
*229 _194_
*230 _195_
*231 _196_
*232 _197_
*233 _198_
*234 _199_
*235 _200_
*236 _201_
*237 _202_
*238 _203_
*239 _204_
*240 _205_
*241 _206_
*242 _207_
*243 _208_
*244 _209_
*245 _210_
*246 _211_
*247 _212_
*248 _213_
*249 _214_
*250 _215_
*251 _216_
*252 _217_
*253 _218_
*254 _219_
*255 mul_ll\.mul_ll\.pp1
*256 mul_ll\.mul_ll\.pp2
*257 net1
*258 net10
*259 net11
*260 net12
*261 net13
*262 net14
*263 net15
*264 net16
*265 net17
*266 net18
*267 net19
*268 net2
*269 net20
*270 net21
*271 net22
*272 net23
*273 net24
*274 net25
*275 net26
*276 net27
*277 net28
*278 net29
*279 net3
*280 net30
*281 net31
*282 net32
*283 net33
*284 net34
*285 net35
*286 net36
*287 net37
*288 net38
*289 net39
*290 net4
*291 net40
*292 net41
*293 net42
*294 net43
*295 net44
*296 net45
*297 net46
*298 net47
*299 net48
*300 net49
*301 net5
*302 net50
*303 net51
*304 net52
*305 net53
*306 net54
*307 net55
*308 net56
*309 net57
*310 net58
*311 net59
*312 net6
*313 net60
*314 net61
*315 net7
*316 net8
*317 net9
*318 FILLER_0_109
*319 FILLER_0_113
*320 FILLER_0_118
*321 FILLER_0_130
*322 FILLER_0_138
*323 FILLER_0_141
*324 FILLER_0_147
*325 FILLER_0_15
*326 FILLER_0_159
*327 FILLER_0_163
*328 FILLER_0_169
*329 FILLER_0_177
*330 FILLER_0_189
*331 FILLER_0_195
*332 FILLER_0_197
*333 FILLER_0_203
*334 FILLER_0_210
*335 FILLER_0_222
*336 FILLER_0_225
*337 FILLER_0_237
*338 FILLER_0_245
*339 FILLER_0_251
*340 FILLER_0_253
*341 FILLER_0_261
*342 FILLER_0_266
*343 FILLER_0_27
*344 FILLER_0_278
*345 FILLER_0_281
*346 FILLER_0_29
*347 FILLER_0_293
*348 FILLER_0_3
*349 FILLER_0_305
*350 FILLER_0_309
*351 FILLER_0_321
*352 FILLER_0_333
*353 FILLER_0_337
*354 FILLER_0_349
*355 FILLER_0_361
*356 FILLER_0_365
*357 FILLER_0_377
*358 FILLER_0_389
*359 FILLER_0_393
*360 FILLER_0_405
*361 FILLER_0_41
*362 FILLER_0_53
*363 FILLER_0_57
*364 FILLER_0_69
*365 FILLER_0_81
*366 FILLER_0_85
*367 FILLER_0_97
*368 FILLER_10_109
*369 FILLER_10_121
*370 FILLER_10_133
*371 FILLER_10_139
*372 FILLER_10_141
*373 FILLER_10_15
*374 FILLER_10_153
*375 FILLER_10_165
*376 FILLER_10_177
*377 FILLER_10_189
*378 FILLER_10_195
*379 FILLER_10_197
*380 FILLER_10_209
*381 FILLER_10_217
*382 FILLER_10_232
*383 FILLER_10_244
*384 FILLER_10_253
*385 FILLER_10_265
*386 FILLER_10_27
*387 FILLER_10_277
*388 FILLER_10_289
*389 FILLER_10_29
*390 FILLER_10_3
*391 FILLER_10_301
*392 FILLER_10_307
*393 FILLER_10_309
*394 FILLER_10_321
*395 FILLER_10_333
*396 FILLER_10_345
*397 FILLER_10_357
*398 FILLER_10_363
*399 FILLER_10_365
*400 FILLER_10_377
*401 FILLER_10_389
*402 FILLER_10_401
*403 FILLER_10_41
*404 FILLER_10_53
*405 FILLER_10_65
*406 FILLER_10_77
*407 FILLER_10_83
*408 FILLER_10_85
*409 FILLER_10_97
*410 FILLER_11_105
*411 FILLER_11_111
*412 FILLER_11_113
*413 FILLER_11_125
*414 FILLER_11_137
*415 FILLER_11_149
*416 FILLER_11_15
*417 FILLER_11_161
*418 FILLER_11_167
*419 FILLER_11_169
*420 FILLER_11_181
*421 FILLER_11_193
*422 FILLER_11_205
*423 FILLER_11_225
*424 FILLER_11_242
*425 FILLER_11_254
*426 FILLER_11_263
*427 FILLER_11_27
*428 FILLER_11_270
*429 FILLER_11_278
*430 FILLER_11_281
*431 FILLER_11_287
*432 FILLER_11_291
*433 FILLER_11_3
*434 FILLER_11_302
*435 FILLER_11_314
*436 FILLER_11_326
*437 FILLER_11_334
*438 FILLER_11_337
*439 FILLER_11_349
*440 FILLER_11_361
*441 FILLER_11_373
*442 FILLER_11_385
*443 FILLER_11_39
*444 FILLER_11_391
*445 FILLER_11_393
*446 FILLER_11_405
*447 FILLER_11_51
*448 FILLER_11_55
*449 FILLER_11_57
*450 FILLER_11_69
*451 FILLER_11_81
*452 FILLER_11_93
*453 FILLER_12_109
*454 FILLER_12_121
*455 FILLER_12_133
*456 FILLER_12_139
*457 FILLER_12_141
*458 FILLER_12_15
*459 FILLER_12_153
*460 FILLER_12_165
*461 FILLER_12_177
*462 FILLER_12_189
*463 FILLER_12_195
*464 FILLER_12_197
*465 FILLER_12_209
*466 FILLER_12_238
*467 FILLER_12_250
*468 FILLER_12_260
*469 FILLER_12_27
*470 FILLER_12_270
*471 FILLER_12_274
*472 FILLER_12_283
*473 FILLER_12_289
*474 FILLER_12_29
*475 FILLER_12_296
*476 FILLER_12_3
*477 FILLER_12_316
*478 FILLER_12_328
*479 FILLER_12_340
*480 FILLER_12_352
*481 FILLER_12_365
*482 FILLER_12_377
*483 FILLER_12_389
*484 FILLER_12_401
*485 FILLER_12_41
*486 FILLER_12_53
*487 FILLER_12_65
*488 FILLER_12_77
*489 FILLER_12_83
*490 FILLER_12_85
*491 FILLER_12_97
*492 FILLER_13_105
*493 FILLER_13_111
*494 FILLER_13_113
*495 FILLER_13_125
*496 FILLER_13_137
*497 FILLER_13_149
*498 FILLER_13_15
*499 FILLER_13_161
*500 FILLER_13_167
*501 FILLER_13_169
*502 FILLER_13_181
*503 FILLER_13_193
*504 FILLER_13_205
*505 FILLER_13_217
*506 FILLER_13_223
*507 FILLER_13_225
*508 FILLER_13_237
*509 FILLER_13_249
*510 FILLER_13_261
*511 FILLER_13_27
*512 FILLER_13_273
*513 FILLER_13_279
*514 FILLER_13_281
*515 FILLER_13_293
*516 FILLER_13_3
*517 FILLER_13_309
*518 FILLER_13_321
*519 FILLER_13_333
*520 FILLER_13_337
*521 FILLER_13_349
*522 FILLER_13_361
*523 FILLER_13_373
*524 FILLER_13_385
*525 FILLER_13_39
*526 FILLER_13_391
*527 FILLER_13_393
*528 FILLER_13_405
*529 FILLER_13_51
*530 FILLER_13_55
*531 FILLER_13_57
*532 FILLER_13_69
*533 FILLER_13_81
*534 FILLER_13_93
*535 FILLER_14_109
*536 FILLER_14_121
*537 FILLER_14_133
*538 FILLER_14_139
*539 FILLER_14_141
*540 FILLER_14_15
*541 FILLER_14_153
*542 FILLER_14_165
*543 FILLER_14_177
*544 FILLER_14_189
*545 FILLER_14_195
*546 FILLER_14_197
*547 FILLER_14_209
*548 FILLER_14_217
*549 FILLER_14_223
*550 FILLER_14_235
*551 FILLER_14_247
*552 FILLER_14_251
*553 FILLER_14_253
*554 FILLER_14_265
*555 FILLER_14_27
*556 FILLER_14_277
*557 FILLER_14_289
*558 FILLER_14_29
*559 FILLER_14_3
*560 FILLER_14_301
*561 FILLER_14_307
*562 FILLER_14_309
*563 FILLER_14_321
*564 FILLER_14_333
*565 FILLER_14_345
*566 FILLER_14_357
*567 FILLER_14_363
*568 FILLER_14_365
*569 FILLER_14_377
*570 FILLER_14_389
*571 FILLER_14_401
*572 FILLER_14_41
*573 FILLER_14_53
*574 FILLER_14_65
*575 FILLER_14_77
*576 FILLER_14_83
*577 FILLER_14_85
*578 FILLER_14_97
*579 FILLER_15_105
*580 FILLER_15_111
*581 FILLER_15_113
*582 FILLER_15_125
*583 FILLER_15_137
*584 FILLER_15_149
*585 FILLER_15_15
*586 FILLER_15_161
*587 FILLER_15_167
*588 FILLER_15_169
*589 FILLER_15_181
*590 FILLER_15_193
*591 FILLER_15_205
*592 FILLER_15_217
*593 FILLER_15_223
*594 FILLER_15_225
*595 FILLER_15_237
*596 FILLER_15_249
*597 FILLER_15_261
*598 FILLER_15_27
*599 FILLER_15_273
*600 FILLER_15_279
*601 FILLER_15_281
*602 FILLER_15_293
*603 FILLER_15_3
*604 FILLER_15_305
*605 FILLER_15_317
*606 FILLER_15_329
*607 FILLER_15_335
*608 FILLER_15_337
*609 FILLER_15_349
*610 FILLER_15_361
*611 FILLER_15_373
*612 FILLER_15_385
*613 FILLER_15_39
*614 FILLER_15_391
*615 FILLER_15_393
*616 FILLER_15_405
*617 FILLER_15_51
*618 FILLER_15_55
*619 FILLER_15_57
*620 FILLER_15_69
*621 FILLER_15_81
*622 FILLER_15_93
*623 FILLER_16_109
*624 FILLER_16_121
*625 FILLER_16_133
*626 FILLER_16_139
*627 FILLER_16_141
*628 FILLER_16_15
*629 FILLER_16_153
*630 FILLER_16_165
*631 FILLER_16_177
*632 FILLER_16_189
*633 FILLER_16_195
*634 FILLER_16_197
*635 FILLER_16_209
*636 FILLER_16_221
*637 FILLER_16_233
*638 FILLER_16_245
*639 FILLER_16_251
*640 FILLER_16_253
*641 FILLER_16_261
*642 FILLER_16_27
*643 FILLER_16_275
*644 FILLER_16_287
*645 FILLER_16_29
*646 FILLER_16_299
*647 FILLER_16_3
*648 FILLER_16_307
*649 FILLER_16_309
*650 FILLER_16_321
*651 FILLER_16_333
*652 FILLER_16_345
*653 FILLER_16_357
*654 FILLER_16_363
*655 FILLER_16_365
*656 FILLER_16_377
*657 FILLER_16_389
*658 FILLER_16_401
*659 FILLER_16_41
*660 FILLER_16_53
*661 FILLER_16_65
*662 FILLER_16_77
*663 FILLER_16_83
*664 FILLER_16_85
*665 FILLER_16_97
*666 FILLER_17_105
*667 FILLER_17_111
*668 FILLER_17_113
*669 FILLER_17_125
*670 FILLER_17_137
*671 FILLER_17_149
*672 FILLER_17_15
*673 FILLER_17_161
*674 FILLER_17_167
*675 FILLER_17_169
*676 FILLER_17_181
*677 FILLER_17_193
*678 FILLER_17_201
*679 FILLER_17_212
*680 FILLER_17_220
*681 FILLER_17_225
*682 FILLER_17_237
*683 FILLER_17_249
*684 FILLER_17_261
*685 FILLER_17_27
*686 FILLER_17_273
*687 FILLER_17_281
*688 FILLER_17_293
*689 FILLER_17_3
*690 FILLER_17_305
*691 FILLER_17_317
*692 FILLER_17_325
*693 FILLER_17_332
*694 FILLER_17_337
*695 FILLER_17_349
*696 FILLER_17_361
*697 FILLER_17_373
*698 FILLER_17_385
*699 FILLER_17_39
*700 FILLER_17_391
*701 FILLER_17_393
*702 FILLER_17_405
*703 FILLER_17_51
*704 FILLER_17_55
*705 FILLER_17_57
*706 FILLER_17_69
*707 FILLER_17_81
*708 FILLER_17_93
*709 FILLER_18_109
*710 FILLER_18_121
*711 FILLER_18_133
*712 FILLER_18_139
*713 FILLER_18_141
*714 FILLER_18_15
*715 FILLER_18_153
*716 FILLER_18_165
*717 FILLER_18_177
*718 FILLER_18_189
*719 FILLER_18_195
*720 FILLER_18_197
*721 FILLER_18_209
*722 FILLER_18_213
*723 FILLER_18_226
*724 FILLER_18_242
*725 FILLER_18_250
*726 FILLER_18_253
*727 FILLER_18_265
*728 FILLER_18_27
*729 FILLER_18_273
*730 FILLER_18_29
*731 FILLER_18_293
*732 FILLER_18_3
*733 FILLER_18_305
*734 FILLER_18_309
*735 FILLER_18_333
*736 FILLER_18_344
*737 FILLER_18_356
*738 FILLER_18_365
*739 FILLER_18_369
*740 FILLER_18_385
*741 FILLER_18_397
*742 FILLER_18_405
*743 FILLER_18_41
*744 FILLER_18_53
*745 FILLER_18_65
*746 FILLER_18_77
*747 FILLER_18_83
*748 FILLER_18_85
*749 FILLER_18_97
*750 FILLER_19_105
*751 FILLER_19_111
*752 FILLER_19_113
*753 FILLER_19_125
*754 FILLER_19_137
*755 FILLER_19_149
*756 FILLER_19_15
*757 FILLER_19_157
*758 FILLER_19_176
*759 FILLER_19_188
*760 FILLER_19_200
*761 FILLER_19_206
*762 FILLER_19_212
*763 FILLER_19_225
*764 FILLER_19_237
*765 FILLER_19_254
*766 FILLER_19_266
*767 FILLER_19_27
*768 FILLER_19_278
*769 FILLER_19_281
*770 FILLER_19_293
*771 FILLER_19_297
*772 FILLER_19_3
*773 FILLER_19_303
*774 FILLER_19_315
*775 FILLER_19_331
*776 FILLER_19_335
*777 FILLER_19_350
*778 FILLER_19_362
*779 FILLER_19_375
*780 FILLER_19_383
*781 FILLER_19_389
*782 FILLER_19_39
*783 FILLER_19_396
*784 FILLER_19_51
*785 FILLER_19_55
*786 FILLER_19_57
*787 FILLER_19_69
*788 FILLER_19_81
*789 FILLER_19_93
*790 FILLER_1_105
*791 FILLER_1_111
*792 FILLER_1_113
*793 FILLER_1_125
*794 FILLER_1_137
*795 FILLER_1_149
*796 FILLER_1_15
*797 FILLER_1_161
*798 FILLER_1_167
*799 FILLER_1_169
*800 FILLER_1_181
*801 FILLER_1_193
*802 FILLER_1_205
*803 FILLER_1_217
*804 FILLER_1_223
*805 FILLER_1_225
*806 FILLER_1_237
*807 FILLER_1_249
*808 FILLER_1_261
*809 FILLER_1_27
*810 FILLER_1_273
*811 FILLER_1_279
*812 FILLER_1_281
*813 FILLER_1_293
*814 FILLER_1_3
*815 FILLER_1_305
*816 FILLER_1_317
*817 FILLER_1_329
*818 FILLER_1_335
*819 FILLER_1_337
*820 FILLER_1_349
*821 FILLER_1_361
*822 FILLER_1_373
*823 FILLER_1_385
*824 FILLER_1_39
*825 FILLER_1_391
*826 FILLER_1_393
*827 FILLER_1_405
*828 FILLER_1_51
*829 FILLER_1_55
*830 FILLER_1_57
*831 FILLER_1_69
*832 FILLER_1_81
*833 FILLER_1_93
*834 FILLER_20_109
*835 FILLER_20_121
*836 FILLER_20_133
*837 FILLER_20_139
*838 FILLER_20_141
*839 FILLER_20_15
*840 FILLER_20_156
*841 FILLER_20_165
*842 FILLER_20_185
*843 FILLER_20_193
*844 FILLER_20_197
*845 FILLER_20_209
*846 FILLER_20_218
*847 FILLER_20_230
*848 FILLER_20_242
*849 FILLER_20_250
*850 FILLER_20_253
*851 FILLER_20_265
*852 FILLER_20_27
*853 FILLER_20_277
*854 FILLER_20_289
*855 FILLER_20_29
*856 FILLER_20_3
*857 FILLER_20_304
*858 FILLER_20_309
*859 FILLER_20_317
*860 FILLER_20_326
*861 FILLER_20_338
*862 FILLER_20_351
*863 FILLER_20_363
*864 FILLER_20_365
*865 FILLER_20_371
*866 FILLER_20_379
*867 FILLER_20_385
*868 FILLER_20_397
*869 FILLER_20_41
*870 FILLER_20_53
*871 FILLER_20_65
*872 FILLER_20_77
*873 FILLER_20_83
*874 FILLER_20_85
*875 FILLER_20_97
*876 FILLER_21_105
*877 FILLER_21_111
*878 FILLER_21_113
*879 FILLER_21_125
*880 FILLER_21_137
*881 FILLER_21_149
*882 FILLER_21_15
*883 FILLER_21_153
*884 FILLER_21_189
*885 FILLER_21_201
*886 FILLER_21_213
*887 FILLER_21_223
*888 FILLER_21_230
*889 FILLER_21_242
*890 FILLER_21_254
*891 FILLER_21_266
*892 FILLER_21_27
*893 FILLER_21_278
*894 FILLER_21_281
*895 FILLER_21_293
*896 FILLER_21_3
*897 FILLER_21_305
*898 FILLER_21_317
*899 FILLER_21_329
*900 FILLER_21_335
*901 FILLER_21_337
*902 FILLER_21_349
*903 FILLER_21_361
*904 FILLER_21_369
*905 FILLER_21_381
*906 FILLER_21_389
*907 FILLER_21_39
*908 FILLER_21_393
*909 FILLER_21_401
*910 FILLER_21_51
*911 FILLER_21_55
*912 FILLER_21_57
*913 FILLER_21_69
*914 FILLER_21_81
*915 FILLER_21_93
*916 FILLER_22_109
*917 FILLER_22_121
*918 FILLER_22_133
*919 FILLER_22_139
*920 FILLER_22_141
*921 FILLER_22_15
*922 FILLER_22_153
*923 FILLER_22_173
*924 FILLER_22_180
*925 FILLER_22_192
*926 FILLER_22_197
*927 FILLER_22_221
*928 FILLER_22_233
*929 FILLER_22_248
*930 FILLER_22_253
*931 FILLER_22_265
*932 FILLER_22_27
*933 FILLER_22_277
*934 FILLER_22_289
*935 FILLER_22_29
*936 FILLER_22_3
*937 FILLER_22_301
*938 FILLER_22_307
*939 FILLER_22_309
*940 FILLER_22_321
*941 FILLER_22_333
*942 FILLER_22_345
*943 FILLER_22_357
*944 FILLER_22_363
*945 FILLER_22_365
*946 FILLER_22_377
*947 FILLER_22_389
*948 FILLER_22_401
*949 FILLER_22_41
*950 FILLER_22_53
*951 FILLER_22_65
*952 FILLER_22_77
*953 FILLER_22_83
*954 FILLER_22_85
*955 FILLER_22_97
*956 FILLER_23_105
*957 FILLER_23_111
*958 FILLER_23_113
*959 FILLER_23_125
*960 FILLER_23_137
*961 FILLER_23_149
*962 FILLER_23_15
*963 FILLER_23_161
*964 FILLER_23_167
*965 FILLER_23_169
*966 FILLER_23_181
*967 FILLER_23_193
*968 FILLER_23_205
*969 FILLER_23_217
*970 FILLER_23_223
*971 FILLER_23_233
*972 FILLER_23_243
*973 FILLER_23_255
*974 FILLER_23_259
*975 FILLER_23_263
*976 FILLER_23_27
*977 FILLER_23_275
*978 FILLER_23_279
*979 FILLER_23_294
*980 FILLER_23_3
*981 FILLER_23_302
*982 FILLER_23_322
*983 FILLER_23_334
*984 FILLER_23_337
*985 FILLER_23_349
*986 FILLER_23_361
*987 FILLER_23_373
*988 FILLER_23_385
*989 FILLER_23_39
*990 FILLER_23_391
*991 FILLER_23_393
*992 FILLER_23_405
*993 FILLER_23_51
*994 FILLER_23_55
*995 FILLER_23_57
*996 FILLER_23_69
*997 FILLER_23_81
*998 FILLER_23_93
*999 FILLER_24_109
*1000 FILLER_24_121
*1001 FILLER_24_133
*1002 FILLER_24_139
*1003 FILLER_24_141
*1004 FILLER_24_15
*1005 FILLER_24_153
*1006 FILLER_24_165
*1007 FILLER_24_177
*1008 FILLER_24_193
*1009 FILLER_24_197
*1010 FILLER_24_206
*1011 FILLER_24_218
*1012 FILLER_24_230
*1013 FILLER_24_242
*1014 FILLER_24_250
*1015 FILLER_24_253
*1016 FILLER_24_259
*1017 FILLER_24_267
*1018 FILLER_24_27
*1019 FILLER_24_279
*1020 FILLER_24_283
*1021 FILLER_24_287
*1022 FILLER_24_29
*1023 FILLER_24_299
*1024 FILLER_24_3
*1025 FILLER_24_307
*1026 FILLER_24_309
*1027 FILLER_24_321
*1028 FILLER_24_333
*1029 FILLER_24_345
*1030 FILLER_24_357
*1031 FILLER_24_363
*1032 FILLER_24_365
*1033 FILLER_24_377
*1034 FILLER_24_389
*1035 FILLER_24_401
*1036 FILLER_24_41
*1037 FILLER_24_53
*1038 FILLER_24_65
*1039 FILLER_24_77
*1040 FILLER_24_83
*1041 FILLER_24_85
*1042 FILLER_24_97
*1043 FILLER_25_105
*1044 FILLER_25_111
*1045 FILLER_25_113
*1046 FILLER_25_125
*1047 FILLER_25_137
*1048 FILLER_25_149
*1049 FILLER_25_15
*1050 FILLER_25_161
*1051 FILLER_25_167
*1052 FILLER_25_169
*1053 FILLER_25_181
*1054 FILLER_25_193
*1055 FILLER_25_205
*1056 FILLER_25_217
*1057 FILLER_25_223
*1058 FILLER_25_225
*1059 FILLER_25_233
*1060 FILLER_25_245
*1061 FILLER_25_257
*1062 FILLER_25_269
*1063 FILLER_25_27
*1064 FILLER_25_277
*1065 FILLER_25_281
*1066 FILLER_25_293
*1067 FILLER_25_3
*1068 FILLER_25_305
*1069 FILLER_25_317
*1070 FILLER_25_329
*1071 FILLER_25_335
*1072 FILLER_25_355
*1073 FILLER_25_367
*1074 FILLER_25_379
*1075 FILLER_25_39
*1076 FILLER_25_391
*1077 FILLER_25_393
*1078 FILLER_25_51
*1079 FILLER_25_55
*1080 FILLER_25_57
*1081 FILLER_25_69
*1082 FILLER_25_81
*1083 FILLER_25_93
*1084 FILLER_26_109
*1085 FILLER_26_121
*1086 FILLER_26_133
*1087 FILLER_26_139
*1088 FILLER_26_141
*1089 FILLER_26_15
*1090 FILLER_26_153
*1091 FILLER_26_165
*1092 FILLER_26_177
*1093 FILLER_26_189
*1094 FILLER_26_195
*1095 FILLER_26_197
*1096 FILLER_26_209
*1097 FILLER_26_221
*1098 FILLER_26_233
*1099 FILLER_26_245
*1100 FILLER_26_251
*1101 FILLER_26_253
*1102 FILLER_26_265
*1103 FILLER_26_27
*1104 FILLER_26_277
*1105 FILLER_26_289
*1106 FILLER_26_29
*1107 FILLER_26_296
*1108 FILLER_26_3
*1109 FILLER_26_309
*1110 FILLER_26_321
*1111 FILLER_26_327
*1112 FILLER_26_336
*1113 FILLER_26_352
*1114 FILLER_26_372
*1115 FILLER_26_384
*1116 FILLER_26_396
*1117 FILLER_26_402
*1118 FILLER_26_41
*1119 FILLER_26_53
*1120 FILLER_26_65
*1121 FILLER_26_77
*1122 FILLER_26_83
*1123 FILLER_26_85
*1124 FILLER_26_97
*1125 FILLER_27_105
*1126 FILLER_27_111
*1127 FILLER_27_113
*1128 FILLER_27_125
*1129 FILLER_27_137
*1130 FILLER_27_149
*1131 FILLER_27_15
*1132 FILLER_27_176
*1133 FILLER_27_188
*1134 FILLER_27_200
*1135 FILLER_27_212
*1136 FILLER_27_225
*1137 FILLER_27_237
*1138 FILLER_27_249
*1139 FILLER_27_261
*1140 FILLER_27_27
*1141 FILLER_27_273
*1142 FILLER_27_279
*1143 FILLER_27_281
*1144 FILLER_27_293
*1145 FILLER_27_3
*1146 FILLER_27_300
*1147 FILLER_27_314
*1148 FILLER_27_322
*1149 FILLER_27_335
*1150 FILLER_27_355
*1151 FILLER_27_367
*1152 FILLER_27_379
*1153 FILLER_27_39
*1154 FILLER_27_391
*1155 FILLER_27_393
*1156 FILLER_27_401
*1157 FILLER_27_51
*1158 FILLER_27_55
*1159 FILLER_27_57
*1160 FILLER_27_69
*1161 FILLER_27_81
*1162 FILLER_27_93
*1163 FILLER_28_109
*1164 FILLER_28_121
*1165 FILLER_28_133
*1166 FILLER_28_139
*1167 FILLER_28_141
*1168 FILLER_28_15
*1169 FILLER_28_153
*1170 FILLER_28_165
*1171 FILLER_28_169
*1172 FILLER_28_183
*1173 FILLER_28_195
*1174 FILLER_28_197
*1175 FILLER_28_209
*1176 FILLER_28_221
*1177 FILLER_28_233
*1178 FILLER_28_245
*1179 FILLER_28_251
*1180 FILLER_28_253
*1181 FILLER_28_265
*1182 FILLER_28_27
*1183 FILLER_28_282
*1184 FILLER_28_29
*1185 FILLER_28_294
*1186 FILLER_28_3
*1187 FILLER_28_306
*1188 FILLER_28_309
*1189 FILLER_28_321
*1190 FILLER_28_333
*1191 FILLER_28_345
*1192 FILLER_28_351
*1193 FILLER_28_359
*1194 FILLER_28_363
*1195 FILLER_28_365
*1196 FILLER_28_377
*1197 FILLER_28_389
*1198 FILLER_28_401
*1199 FILLER_28_41
*1200 FILLER_28_53
*1201 FILLER_28_65
*1202 FILLER_28_77
*1203 FILLER_28_83
*1204 FILLER_28_85
*1205 FILLER_28_97
*1206 FILLER_29_105
*1207 FILLER_29_111
*1208 FILLER_29_113
*1209 FILLER_29_125
*1210 FILLER_29_137
*1211 FILLER_29_149
*1212 FILLER_29_15
*1213 FILLER_29_161
*1214 FILLER_29_167
*1215 FILLER_29_169
*1216 FILLER_29_181
*1217 FILLER_29_193
*1218 FILLER_29_205
*1219 FILLER_29_217
*1220 FILLER_29_223
*1221 FILLER_29_225
*1222 FILLER_29_237
*1223 FILLER_29_249
*1224 FILLER_29_255
*1225 FILLER_29_27
*1226 FILLER_29_270
*1227 FILLER_29_278
*1228 FILLER_29_281
*1229 FILLER_29_293
*1230 FILLER_29_3
*1231 FILLER_29_305
*1232 FILLER_29_317
*1233 FILLER_29_329
*1234 FILLER_29_335
*1235 FILLER_29_337
*1236 FILLER_29_349
*1237 FILLER_29_361
*1238 FILLER_29_373
*1239 FILLER_29_385
*1240 FILLER_29_39
*1241 FILLER_29_391
*1242 FILLER_29_393
*1243 FILLER_29_405
*1244 FILLER_29_51
*1245 FILLER_29_55
*1246 FILLER_29_57
*1247 FILLER_29_69
*1248 FILLER_29_81
*1249 FILLER_29_93
*1250 FILLER_2_109
*1251 FILLER_2_121
*1252 FILLER_2_133
*1253 FILLER_2_139
*1254 FILLER_2_141
*1255 FILLER_2_15
*1256 FILLER_2_153
*1257 FILLER_2_165
*1258 FILLER_2_177
*1259 FILLER_2_185
*1260 FILLER_2_190
*1261 FILLER_2_197
*1262 FILLER_2_209
*1263 FILLER_2_221
*1264 FILLER_2_233
*1265 FILLER_2_241
*1266 FILLER_2_249
*1267 FILLER_2_253
*1268 FILLER_2_265
*1269 FILLER_2_269
*1270 FILLER_2_27
*1271 FILLER_2_281
*1272 FILLER_2_29
*1273 FILLER_2_293
*1274 FILLER_2_3
*1275 FILLER_2_305
*1276 FILLER_2_309
*1277 FILLER_2_321
*1278 FILLER_2_333
*1279 FILLER_2_345
*1280 FILLER_2_357
*1281 FILLER_2_363
*1282 FILLER_2_365
*1283 FILLER_2_377
*1284 FILLER_2_389
*1285 FILLER_2_401
*1286 FILLER_2_41
*1287 FILLER_2_53
*1288 FILLER_2_65
*1289 FILLER_2_77
*1290 FILLER_2_83
*1291 FILLER_2_85
*1292 FILLER_2_97
*1293 FILLER_30_109
*1294 FILLER_30_121
*1295 FILLER_30_133
*1296 FILLER_30_139
*1297 FILLER_30_141
*1298 FILLER_30_15
*1299 FILLER_30_153
*1300 FILLER_30_165
*1301 FILLER_30_171
*1302 FILLER_30_176
*1303 FILLER_30_188
*1304 FILLER_30_197
*1305 FILLER_30_205
*1306 FILLER_30_218
*1307 FILLER_30_228
*1308 FILLER_30_240
*1309 FILLER_30_253
*1310 FILLER_30_269
*1311 FILLER_30_27
*1312 FILLER_30_278
*1313 FILLER_30_29
*1314 FILLER_30_290
*1315 FILLER_30_297
*1316 FILLER_30_3
*1317 FILLER_30_305
*1318 FILLER_30_309
*1319 FILLER_30_321
*1320 FILLER_30_333
*1321 FILLER_30_345
*1322 FILLER_30_357
*1323 FILLER_30_363
*1324 FILLER_30_365
*1325 FILLER_30_377
*1326 FILLER_30_389
*1327 FILLER_30_401
*1328 FILLER_30_41
*1329 FILLER_30_53
*1330 FILLER_30_65
*1331 FILLER_30_77
*1332 FILLER_30_83
*1333 FILLER_30_85
*1334 FILLER_30_97
*1335 FILLER_31_105
*1336 FILLER_31_111
*1337 FILLER_31_113
*1338 FILLER_31_125
*1339 FILLER_31_137
*1340 FILLER_31_148
*1341 FILLER_31_15
*1342 FILLER_31_160
*1343 FILLER_31_169
*1344 FILLER_31_181
*1345 FILLER_31_193
*1346 FILLER_31_199
*1347 FILLER_31_220
*1348 FILLER_31_230
*1349 FILLER_31_242
*1350 FILLER_31_254
*1351 FILLER_31_27
*1352 FILLER_31_274
*1353 FILLER_31_295
*1354 FILLER_31_3
*1355 FILLER_31_307
*1356 FILLER_31_319
*1357 FILLER_31_331
*1358 FILLER_31_335
*1359 FILLER_31_337
*1360 FILLER_31_349
*1361 FILLER_31_361
*1362 FILLER_31_373
*1363 FILLER_31_385
*1364 FILLER_31_39
*1365 FILLER_31_391
*1366 FILLER_31_393
*1367 FILLER_31_405
*1368 FILLER_31_51
*1369 FILLER_31_55
*1370 FILLER_31_57
*1371 FILLER_31_69
*1372 FILLER_31_81
*1373 FILLER_31_93
*1374 FILLER_32_109
*1375 FILLER_32_121
*1376 FILLER_32_15
*1377 FILLER_32_151
*1378 FILLER_32_163
*1379 FILLER_32_175
*1380 FILLER_32_187
*1381 FILLER_32_195
*1382 FILLER_32_197
*1383 FILLER_32_207
*1384 FILLER_32_215
*1385 FILLER_32_229
*1386 FILLER_32_241
*1387 FILLER_32_249
*1388 FILLER_32_253
*1389 FILLER_32_261
*1390 FILLER_32_27
*1391 FILLER_32_275
*1392 FILLER_32_287
*1393 FILLER_32_29
*1394 FILLER_32_299
*1395 FILLER_32_3
*1396 FILLER_32_307
*1397 FILLER_32_309
*1398 FILLER_32_321
*1399 FILLER_32_333
*1400 FILLER_32_345
*1401 FILLER_32_357
*1402 FILLER_32_363
*1403 FILLER_32_365
*1404 FILLER_32_377
*1405 FILLER_32_389
*1406 FILLER_32_401
*1407 FILLER_32_41
*1408 FILLER_32_53
*1409 FILLER_32_65
*1410 FILLER_32_77
*1411 FILLER_32_83
*1412 FILLER_32_85
*1413 FILLER_32_97
*1414 FILLER_33_105
*1415 FILLER_33_111
*1416 FILLER_33_113
*1417 FILLER_33_125
*1418 FILLER_33_136
*1419 FILLER_33_148
*1420 FILLER_33_15
*1421 FILLER_33_156
*1422 FILLER_33_186
*1423 FILLER_33_198
*1424 FILLER_33_210
*1425 FILLER_33_222
*1426 FILLER_33_225
*1427 FILLER_33_237
*1428 FILLER_33_249
*1429 FILLER_33_261
*1430 FILLER_33_27
*1431 FILLER_33_273
*1432 FILLER_33_279
*1433 FILLER_33_281
*1434 FILLER_33_296
*1435 FILLER_33_3
*1436 FILLER_33_308
*1437 FILLER_33_320
*1438 FILLER_33_332
*1439 FILLER_33_337
*1440 FILLER_33_349
*1441 FILLER_33_361
*1442 FILLER_33_373
*1443 FILLER_33_385
*1444 FILLER_33_39
*1445 FILLER_33_391
*1446 FILLER_33_393
*1447 FILLER_33_405
*1448 FILLER_33_51
*1449 FILLER_33_55
*1450 FILLER_33_57
*1451 FILLER_33_69
*1452 FILLER_33_81
*1453 FILLER_33_93
*1454 FILLER_34_107
*1455 FILLER_34_113
*1456 FILLER_34_139
*1457 FILLER_34_141
*1458 FILLER_34_15
*1459 FILLER_34_153
*1460 FILLER_34_165
*1461 FILLER_34_177
*1462 FILLER_34_189
*1463 FILLER_34_195
*1464 FILLER_34_197
*1465 FILLER_34_209
*1466 FILLER_34_221
*1467 FILLER_34_233
*1468 FILLER_34_245
*1469 FILLER_34_251
*1470 FILLER_34_253
*1471 FILLER_34_260
*1472 FILLER_34_27
*1473 FILLER_34_272
*1474 FILLER_34_284
*1475 FILLER_34_29
*1476 FILLER_34_296
*1477 FILLER_34_3
*1478 FILLER_34_306
*1479 FILLER_34_309
*1480 FILLER_34_321
*1481 FILLER_34_333
*1482 FILLER_34_345
*1483 FILLER_34_357
*1484 FILLER_34_363
*1485 FILLER_34_365
*1486 FILLER_34_377
*1487 FILLER_34_389
*1488 FILLER_34_401
*1489 FILLER_34_41
*1490 FILLER_34_53
*1491 FILLER_34_65
*1492 FILLER_34_77
*1493 FILLER_34_83
*1494 FILLER_34_85
*1495 FILLER_35_106
*1496 FILLER_35_113
*1497 FILLER_35_125
*1498 FILLER_35_137
*1499 FILLER_35_149
*1500 FILLER_35_161
*1501 FILLER_35_167
*1502 FILLER_35_169
*1503 FILLER_35_180
*1504 FILLER_35_192
*1505 FILLER_35_204
*1506 FILLER_35_21
*1507 FILLER_35_216
*1508 FILLER_35_225
*1509 FILLER_35_237
*1510 FILLER_35_249
*1511 FILLER_35_261
*1512 FILLER_35_273
*1513 FILLER_35_279
*1514 FILLER_35_281
*1515 FILLER_35_293
*1516 FILLER_35_315
*1517 FILLER_35_327
*1518 FILLER_35_33
*1519 FILLER_35_335
*1520 FILLER_35_337
*1521 FILLER_35_349
*1522 FILLER_35_361
*1523 FILLER_35_373
*1524 FILLER_35_385
*1525 FILLER_35_391
*1526 FILLER_35_393
*1527 FILLER_35_405
*1528 FILLER_35_45
*1529 FILLER_35_53
*1530 FILLER_35_57
*1531 FILLER_35_69
*1532 FILLER_35_81
*1533 FILLER_35_9
*1534 FILLER_35_93
*1535 FILLER_36_102
*1536 FILLER_36_114
*1537 FILLER_36_126
*1538 FILLER_36_138
*1539 FILLER_36_141
*1540 FILLER_36_153
*1541 FILLER_36_165
*1542 FILLER_36_177
*1543 FILLER_36_197
*1544 FILLER_36_209
*1545 FILLER_36_21
*1546 FILLER_36_217
*1547 FILLER_36_233
*1548 FILLER_36_245
*1549 FILLER_36_251
*1550 FILLER_36_253
*1551 FILLER_36_265
*1552 FILLER_36_27
*1553 FILLER_36_277
*1554 FILLER_36_289
*1555 FILLER_36_29
*1556 FILLER_36_301
*1557 FILLER_36_307
*1558 FILLER_36_309
*1559 FILLER_36_321
*1560 FILLER_36_333
*1561 FILLER_36_345
*1562 FILLER_36_357
*1563 FILLER_36_363
*1564 FILLER_36_365
*1565 FILLER_36_377
*1566 FILLER_36_389
*1567 FILLER_36_401
*1568 FILLER_36_41
*1569 FILLER_36_53
*1570 FILLER_36_65
*1571 FILLER_36_77
*1572 FILLER_36_83
*1573 FILLER_36_9
*1574 FILLER_36_90
*1575 FILLER_37_106
*1576 FILLER_37_113
*1577 FILLER_37_125
*1578 FILLER_37_137
*1579 FILLER_37_149
*1580 FILLER_37_15
*1581 FILLER_37_163
*1582 FILLER_37_167
*1583 FILLER_37_169
*1584 FILLER_37_190
*1585 FILLER_37_202
*1586 FILLER_37_210
*1587 FILLER_37_222
*1588 FILLER_37_228
*1589 FILLER_37_261
*1590 FILLER_37_27
*1591 FILLER_37_273
*1592 FILLER_37_279
*1593 FILLER_37_281
*1594 FILLER_37_293
*1595 FILLER_37_3
*1596 FILLER_37_305
*1597 FILLER_37_313
*1598 FILLER_37_319
*1599 FILLER_37_331
*1600 FILLER_37_335
*1601 FILLER_37_337
*1602 FILLER_37_349
*1603 FILLER_37_361
*1604 FILLER_37_373
*1605 FILLER_37_385
*1606 FILLER_37_39
*1607 FILLER_37_391
*1608 FILLER_37_393
*1609 FILLER_37_405
*1610 FILLER_37_51
*1611 FILLER_37_55
*1612 FILLER_37_57
*1613 FILLER_37_69
*1614 FILLER_37_81
*1615 FILLER_37_94
*1616 FILLER_38_110
*1617 FILLER_38_122
*1618 FILLER_38_126
*1619 FILLER_38_136
*1620 FILLER_38_141
*1621 FILLER_38_15
*1622 FILLER_38_172
*1623 FILLER_38_184
*1624 FILLER_38_197
*1625 FILLER_38_209
*1626 FILLER_38_221
*1627 FILLER_38_233
*1628 FILLER_38_245
*1629 FILLER_38_251
*1630 FILLER_38_253
*1631 FILLER_38_268
*1632 FILLER_38_27
*1633 FILLER_38_280
*1634 FILLER_38_29
*1635 FILLER_38_292
*1636 FILLER_38_3
*1637 FILLER_38_304
*1638 FILLER_38_309
*1639 FILLER_38_317
*1640 FILLER_38_329
*1641 FILLER_38_341
*1642 FILLER_38_353
*1643 FILLER_38_361
*1644 FILLER_38_365
*1645 FILLER_38_377
*1646 FILLER_38_389
*1647 FILLER_38_401
*1648 FILLER_38_41
*1649 FILLER_38_53
*1650 FILLER_38_65
*1651 FILLER_38_77
*1652 FILLER_38_83
*1653 FILLER_38_85
*1654 FILLER_38_98
*1655 FILLER_39_105
*1656 FILLER_39_111
*1657 FILLER_39_113
*1658 FILLER_39_125
*1659 FILLER_39_137
*1660 FILLER_39_149
*1661 FILLER_39_153
*1662 FILLER_39_165
*1663 FILLER_39_169
*1664 FILLER_39_181
*1665 FILLER_39_19
*1666 FILLER_39_193
*1667 FILLER_39_201
*1668 FILLER_39_217
*1669 FILLER_39_223
*1670 FILLER_39_225
*1671 FILLER_39_237
*1672 FILLER_39_249
*1673 FILLER_39_261
*1674 FILLER_39_277
*1675 FILLER_39_281
*1676 FILLER_39_293
*1677 FILLER_39_305
*1678 FILLER_39_31
*1679 FILLER_39_317
*1680 FILLER_39_329
*1681 FILLER_39_335
*1682 FILLER_39_337
*1683 FILLER_39_349
*1684 FILLER_39_361
*1685 FILLER_39_373
*1686 FILLER_39_385
*1687 FILLER_39_391
*1688 FILLER_39_393
*1689 FILLER_39_405
*1690 FILLER_39_43