*SPEF "ieee 1481-1999"
*DESIGN "Sarsa_Ruido_e9_1"
*DATE "14:13:08 Tuesday September 16, 2025"
*VENDOR "The OpenROAD Project"
*PROGRAM "OpenROAD"
*VERSION "edf00dff99f6c40d67a30c0e22a8191c5d2ed9d6"
*DESIGN_FLOW "NAME_SCOPE LOCAL" "PIN_CAP NONE"
*DIVIDER /
*DELIMITER :
*BUS_DELIMITER []
*T_UNIT 1 NS
*C_UNIT 1 PF
*R_UNIT 1 OHM
*L_UNIT 1 HENRY

*NAME_MAP
*1 A[0]
*2 A[1]
*3 B[0]
*4 B[1]
*5 P[0]
*6 P[1]
*7 P[2]
*8 P[3]
*11 _00_
*12 _01_
*13 _02_
*14 _03_
*15 _04_
*16 net1
*17 net2
*18 net3
*19 net4
*20 net5
*21 net6
*22 net7
*23 net8
*24 FILLER_0_15
*25 FILLER_0_23
*26 FILLER_0_27
*27 FILLER_0_29
*28 FILLER_0_3
*29 FILLER_0_35
*30 FILLER_0_41
*31 FILLER_0_49
*32 FILLER_0_55
*33 FILLER_0_57
*34 FILLER_0_69
*35 FILLER_1_15
*36 FILLER_1_26
*37 FILLER_1_3
*38 FILLER_1_34
*39 FILLER_1_44
*40 FILLER_1_57
*41 FILLER_1_69
*42 FILLER_2_15
*43 FILLER_2_19
*44 FILLER_2_3
*45 FILLER_2_39
*46 FILLER_2_51
*47 FILLER_2_63
*48 FILLER_2_75
*49 FILLER_3_15
*50 FILLER_3_27
*51 FILLER_3_3
*52 FILLER_3_39
*53 FILLER_3_51
*54 FILLER_3_55
*55 FILLER_3_57
*56 FILLER_3_69
*57 FILLER_4_15
*58 FILLER_4_27
*59 FILLER_4_29
*60 FILLER_4_3
*61 FILLER_4_41
*62 FILLER_4_53
*63 FILLER_4_65
*64 FILLER_4_77
*65 FILLER_5_15
*66 FILLER_5_27
*67 FILLER_5_3
*68 FILLER_5_35
*69 FILLER_5_41
*70 FILLER_5_53
*71 FILLER_5_57
*72 FILLER_5_69
*73 FILLER_6_15
*74 FILLER_6_27
*75 FILLER_6_29
*76 FILLER_6_3
*77 FILLER_6_35
*78 FILLER_6_49
*79 FILLER_6_61
*80 FILLER_6_73
*81 FILLER_7_15
*82 FILLER_7_27
*83 FILLER_7_3
*84 FILLER_7_39
*85 FILLER_7_51
*86 FILLER_7_55
*87 FILLER_7_57
*88 FILLER_7_69
*89 FILLER_8_15
*90 FILLER_8_27
*91 FILLER_8_29
*92 FILLER_8_3
*93 FILLER_8_41
*94 FILLER_8_45
*95 FILLER_8_49
*96 FILLER_8_61
*97 FILLER_8_73
*98 FILLER_9_15
*99 FILLER_9_27
*100 FILLER_9_29
*101 FILLER_9_3
*102 FILLER_9_37
*103 FILLER_9_42
*104 FILLER_9_48
*105 FILLER_9_57
*106 FILLER_9_69
*107 PHY_EDGE_ROW_0_Left_10
*108 PHY_EDGE_ROW_0_Right_0
*109 PHY_EDGE_ROW_1_Left_11
*110 PHY_EDGE_ROW_1_Right_1
*111 PHY_EDGE_ROW_2_Left_12
*112 PHY_EDGE_ROW_2_Right_2
*113 PHY_EDGE_ROW_3_Left_13
*114 PHY_EDGE_ROW_3_Right_3
*115 PHY_EDGE_ROW_4_Left_14
*116 PHY_EDGE_ROW_4_Right_4
*117 PHY_EDGE_ROW_5_Left_15
*118 PHY_EDGE_ROW_5_Right_5
*119 PHY_EDGE_ROW_6_Left_16
*120 PHY_EDGE_ROW_6_Right_6
*121 PHY_EDGE_ROW_7_Left_17
*122 PHY_EDGE_ROW_7_Right_7
*123 PHY_EDGE_ROW_8_Left_18
*124 PHY_EDGE_ROW_8_Right_8
*125 PHY_EDGE_ROW_9_Left_19
*126 PHY_EDGE_ROW_9_Right_9
*127 TAP_TAPCELL_ROW_0_20
*128 TAP_TAPCELL_ROW_0_21
*129 TAP_TAPCELL_ROW_1_22
*130 TAP_TAPCELL_ROW_2_23
*131 TAP_TAPCELL_ROW_3_24
*132 TAP_TAPCELL_ROW_4_25
*133 TAP_TAPCELL_ROW_5_26
*134 TAP_TAPCELL_ROW_6_27
*135 TAP_TAPCELL_ROW_7_28
*136 TAP_TAPCELL_ROW_8_29
*137 TAP_TAPCELL_ROW_9_30
*138 TAP_TAPCELL_ROW_9_31
*139 _05_
*140 _06_
*141 _07_
*142 _08_
*143 _09_
*144 _10_
*145 _11_
*146 _12_
*147 _13_
*148 input1
*149 input2
*150 input3
*151 input4
*152 output5
*153 output6
*154 output7
*155 output8

*PORTS
A[0] I
A[1] I
B[0] I
B[1] I
P[0] O
P[1] O
P[2] O
P[3] O

*D_NET *1 0.00102106
*CONN
*P A[0] I
*I *148:A I *D sky130_fd_sc_hd__clkbuf_1
*CAP
1 A[0] 0.000499015
2 *148:A 0.000499015
3 *148:A P[0] 0
4 *148:A P[1] 0
5 *148:A *16:10 2.30292e-05
6 *148:A *20:10 0
*RES
1 A[0] *148:A 48.2743 
*END

*D_NET *2 0.000901682
*CONN
*P A[1] I
*I *149:A I *D sky130_fd_sc_hd__buf_1
*CAP
1 A[1] 0.000450841
2 *149:A 0.000450841
3 *149:A P[0] 0
*RES
1 A[1] *149:A 47.3214 
*END

*D_NET *3 0.00100835
*CONN
*P B[0] I
*I *150:A I *D sky130_fd_sc_hd__buf_1
*CAP
1 B[0] 0.000504176
2 *150:A 0.000504176
3 *150:A P[1] 0
*RES
1 B[0] *150:A 48.2743 
*END

*D_NET *4 0.00098608
*CONN
*P B[1] I
*I *151:A I *D sky130_fd_sc_hd__buf_1
*CAP
1 B[1] 0.00049304
2 *151:A 0.00049304
3 *151:A P[2] 0
4 *151:A P[3] 0
*RES
1 B[1] *151:A 48.73 
*END

*D_NET *5 0.00100184
*CONN
*P P[0] O
*I *152:X O *D sky130_fd_sc_hd__buf_2
*CAP
1 P[0] 0.000500919
2 *152:X 0.000500919
3 *148:A P[0] 0
4 *149:A P[0] 0
*RES
1 *152:X P[0] 47.57 
*END

*D_NET *6 0.000986104
*CONN
*P P[1] O
*I *153:X O *D sky130_fd_sc_hd__buf_2
*CAP
1 P[1] 0.000493052
2 *153:X 0.000493052
3 *148:A P[1] 0
4 *150:A P[1] 0
*RES
1 *153:X P[1] 47.86 
*END

*D_NET *7 0.000960449
*CONN
*P P[2] O
*I *154:X O *D sky130_fd_sc_hd__buf_2
*CAP
1 P[2] 0.000480224
2 *154:X 0.000480224
3 *151:A P[2] 0
*RES
1 *154:X P[2] 48.5021 
*END

*D_NET *8 0.00100297
*CONN
*P P[3] O
*I *155:X O *D sky130_fd_sc_hd__buf_2
*CAP
1 P[3] 0.000501485
2 *155:X 0.000501485
3 *151:A P[3] 0
*RES
1 *155:X P[3] 48.9786 
*END

*D_NET *11 0.004094
*CONN
*I *145:B1 I *D sky130_fd_sc_hd__a31o_1
*I *141:B1 I *D sky130_fd_sc_hd__a21oi_1
*I *147:A I *D sky130_fd_sc_hd__nor2_1
*I *140:X O *D sky130_fd_sc_hd__and4bb_1
*CAP
1 *145:B1 0.000435117
2 *141:B1 0
3 *147:A 0.000287045
4 *140:X 0.000268426
5 *11:14 0.00050084
6 *11:8 0.000917339
7 *145:B1 *13:8 1.63351e-05
8 *145:B1 *18:71 0.000138719
9 *145:B1 *19:31 0.000574857
10 *147:A *18:22 0.000188934
11 *147:A *20:10 0.000102301
12 *11:8 *17:17 0.000366444
13 *11:8 *17:24 5.56279e-05
14 *11:14 *16:10 0.000111852
15 *11:14 *17:32 2.13834e-05
16 *11:14 *18:22 2.47321e-05
17 *11:14 *19:31 8.4047e-05
*RES
1 *140:X *11:8 42.4329 
2 *11:8 *11:14 18.9357 
3 *11:14 *147:A 29.3593 
4 *11:14 *141:B1 23 
5 *11:8 *145:B1 49.1236 
*END

*D_NET *12 0.00148768
*CONN
*I *143:A I *D sky130_fd_sc_hd__inv_2
*I *145:A2 I *D sky130_fd_sc_hd__a31o_1
*I *142:Y O *D sky130_fd_sc_hd__nand3b_1
*CAP
1 *143:A 0
2 *145:A2 0.000175856
3 *142:Y 8.90446e-05
4 *12:21 0.000185845
5 *12:6 0.000450746
6 *145:A2 *142:B 1.32314e-05
7 *145:A2 *145:A1 0.000144031
8 *145:A2 *22:10 5.68958e-05
9 *12:6 *142:B 1.40958e-05
10 *12:21 *19:8 0.00035793
*RES
1 *142:Y *12:6 24.0979 
2 *12:6 *145:A2 27.3293 
3 *12:6 *12:21 34.7229 
4 *12:21 *143:A 23 
*END

*D_NET *13 0.000251402
*CONN
*I *145:A3 I *D sky130_fd_sc_hd__a31o_1
*I *144:Y O *D sky130_fd_sc_hd__nand2b_1
*CAP
1 *145:A3 0
2 *144:Y 9.71065e-05
3 *13:8 9.71065e-05
4 *13:8 *18:71 4.08537e-05
5 *145:B1 *13:8 1.63351e-05
*RES
1 *144:Y *13:8 39.9057 
2 *13:8 *145:A3 38 
*END

*D_NET *14 0.000400598
*CONN
*I *147:B I *D sky130_fd_sc_hd__nor2_1
*I *146:X O *D sky130_fd_sc_hd__o2bb2a_1
*CAP
1 *147:B 8.68383e-05
2 *146:X 0.000110774
3 *14:8 0.000197612
4 *147:B *20:10 5.37348e-06
5 *14:8 *17:8 0
*RES
1 *146:X *14:8 39.9057 
2 *14:8 *147:B 39.5743 
*END

*D_NET *15 0.000180994
*CONN
*I *141:A2 I *D sky130_fd_sc_hd__a21oi_1
*I *139:Y O *D sky130_fd_sc_hd__inv_2
*CAP
1 *141:A2 3.55454e-05
2 *139:Y 3.55454e-05
3 *141:A2 *17:32 7.51453e-06
4 *141:A2 *18:22 0.000102389
*RES
1 *139:Y *141:A2 47.0979 
*END

*D_NET *16 0.00233305
*CONN
*I *146:A2_N I *D sky130_fd_sc_hd__o2bb2a_1
*I *140:C I *D sky130_fd_sc_hd__and4bb_1
*I *148:X O *D sky130_fd_sc_hd__clkbuf_1
*CAP
1 *146:A2_N 0.00025051
2 *140:C 0
3 *148:X 0.000261638
4 *16:14 0.000498672
5 *16:10 0.0005098
6 *146:A2_N *146:A1_N 0.000201105
7 *146:A2_N *146:B1 0.000231229
8 *16:10 *17:32 8.4047e-05
9 *16:10 *20:10 0
10 *16:14 *146:B1 0.00011906
11 *16:14 *19:31 4.21062e-05
12 *148:A *16:10 2.30292e-05
13 *11:14 *16:10 0.000111852
*RES
1 *148:X *16:10 42.64 
2 *16:10 *16:14 18.48 
3 *16:14 *140:C 23 
4 *16:14 *146:A2_N 28.9036 
*END

*D_NET *17 0.00511223
*CONN
*I *142:C I *D sky130_fd_sc_hd__nand3b_1
*I *145:A1 I *D sky130_fd_sc_hd__a31o_1
*I *141:A1 I *D sky130_fd_sc_hd__a21oi_1
*I *140:A_N I *D sky130_fd_sc_hd__and4bb_1
*I *146:B2 I *D sky130_fd_sc_hd__o2bb2a_1
*I *149:X O *D sky130_fd_sc_hd__buf_1
*CAP
1 *142:C 0
2 *145:A1 0.000151758
3 *141:A1 0
4 *140:A_N 0
5 *146:B2 0
6 *149:X 0.000366532
7 *17:45 0.000883918
8 *17:32 0.000169967
9 *17:24 0.000979598
10 *17:17 0.000199548
11 *17:10 0.000122077
12 *17:8 0.000366532
13 *145:A1 *18:71 0.00026944
14 *17:8 *18:22 0
15 *17:8 *20:10 0
16 *17:17 *146:A1_N 0.000228909
17 *17:17 *18:24 9.94357e-05
18 *17:17 *18:54 0.000188934
19 *17:24 *18:54 0.000123838
20 *17:32 *18:22 1.34995e-05
21 *17:32 *18:54 3.43144e-05
22 *17:32 *19:31 5.94125e-05
23 *17:45 *142:A_N 5.95079e-05
24 *17:45 *18:54 4.08664e-05
25 *17:45 *18:71 0
26 *17:45 *19:14 7.50918e-05
27 *141:A2 *17:32 7.51453e-06
28 *145:A2 *145:A1 0.000144031
29 *11:8 *17:17 0.000366444
30 *11:8 *17:24 5.56279e-05
31 *11:14 *17:32 2.13834e-05
32 *14:8 *17:8 0
33 *16:10 *17:32 8.4047e-05
*RES
1 *149:X *17:8 43.4271 
2 *17:8 *17:10 15 
3 *17:10 *146:B2 23 
4 *17:10 *17:17 5.38571 
5 *17:17 *140:A_N 23 
6 *17:17 *17:24 1.57429 
7 *17:24 *17:32 33.2314 
8 *17:32 *141:A1 23 
9 *17:24 *17:45 43.2364 
10 *17:45 *145:A1 27.4743 
11 *17:45 *142:C 23 
*END

*D_NET *18 0.00679773
*CONN
*I *139:A I *D sky130_fd_sc_hd__inv_2
*I *142:A_N I *D sky130_fd_sc_hd__nand3b_1
*I *144:B I *D sky130_fd_sc_hd__nand2b_1
*I *140:D I *D sky130_fd_sc_hd__and4bb_1
*I *146:A1_N I *D sky130_fd_sc_hd__o2bb2a_1
*I *150:X O *D sky130_fd_sc_hd__buf_1
*CAP
1 *139:A 0
2 *142:A_N 4.29927e-05
3 *144:B 0
4 *140:D 0
5 *146:A1_N 0.000127731
6 *150:X 0.000130366
7 *18:71 0.000325377
8 *18:54 0.000839344
9 *18:24 0.000148037
10 *18:22 0.00100157
11 *18:12 0.000663847
12 *18:8 0.000369905
13 *146:A1_N *146:B1 0.000187129
14 *18:12 *21:10 2.93985e-05
15 *18:22 *21:10 0.000151096
16 *18:24 *146:B1 8.62044e-05
17 *18:54 *144:A_N 6.663e-05
18 *18:54 *146:B1 0.000176497
19 *18:54 *19:14 4.08664e-05
20 *18:54 *19:31 0.000620483
21 *18:71 *19:31 3.47781e-05
22 *141:A2 *18:22 0.000102389
23 *145:A1 *18:71 0.00026944
24 *145:B1 *18:71 0.000138719
25 *146:A2_N *146:A1_N 0.000201105
26 *147:A *18:22 0.000188934
27 *11:14 *18:22 2.47321e-05
28 *13:8 *18:71 4.08537e-05
29 *17:8 *18:22 0
30 *17:17 *146:A1_N 0.000228909
31 *17:17 *18:24 9.94357e-05
32 *17:17 *18:54 0.000188934
33 *17:24 *18:54 0.000123838
34 *17:32 *18:22 1.34995e-05
35 *17:32 *18:54 3.43144e-05
36 *17:45 *142:A_N 5.95079e-05
37 *17:45 *18:54 4.08664e-05
38 *17:45 *18:71 0
*RES
1 *150:X *18:8 40.2579 
2 *18:8 *18:12 19.4329 
3 *18:12 *18:22 38.7207 
4 *18:22 *18:24 1.09786 
5 *18:24 *146:A1_N 28.0905 
6 *18:24 *140:D 23 
7 *18:22 *18:54 44.5725 
8 *18:54 *144:B 23 
9 *18:54 *18:71 49.9093 
10 *18:71 *142:A_N 38.8493 
11 *18:12 *139:A 23 
*END

*D_NET *19 0.00532333
*CONN
*I *142:B I *D sky130_fd_sc_hd__nand3b_1
*I *140:B_N I *D sky130_fd_sc_hd__and4bb_1
*I *146:B1 I *D sky130_fd_sc_hd__o2bb2a_1
*I *144:A_N I *D sky130_fd_sc_hd__nand2b_1
*I *151:X O *D sky130_fd_sc_hd__buf_1
*CAP
1 *142:B 3.36661e-05
2 *140:B_N 2.30556e-05
3 *146:B1 7.95112e-05
4 *144:A_N 0.000139776
5 *151:X 0.00037033
6 *19:31 0.000364341
7 *19:14 0.000763277
8 *19:8 0.000765723
9 *19:8 *23:10 0
10 *145:A2 *142:B 1.32314e-05
11 *145:B1 *19:31 0.000574857
12 *146:A1_N *146:B1 0.000187129
13 *146:A2_N *146:B1 0.000231229
14 *11:14 *19:31 8.4047e-05
15 *12:6 *142:B 1.40958e-05
16 *12:21 *19:8 0.00035793
17 *16:14 *146:B1 0.00011906
18 *16:14 *19:31 4.21062e-05
19 *17:32 *19:31 5.94125e-05
20 *17:45 *19:14 7.50918e-05
21 *18:24 *146:B1 8.62044e-05
22 *18:54 *144:A_N 6.663e-05
23 *18:54 *146:B1 0.000176497
24 *18:54 *19:14 4.08664e-05
25 *18:54 *19:31 0.000620483
26 *18:71 *19:31 3.47781e-05
*RES
1 *151:X *19:8 45.8921 
2 *19:8 *19:14 21.2143 
3 *19:14 *144:A_N 25.0714 
4 *19:14 *19:31 40.3986 
5 *19:31 *146:B1 27.9093 
6 *19:31 *140:B_N 23.4971 
7 *19:8 *142:B 38.6214 
*END

*D_NET *20 0.000916528
*CONN
*I *152:A I *D sky130_fd_sc_hd__buf_2
*I *147:Y O *D sky130_fd_sc_hd__nor2_1
*CAP
1 *152:A 0
2 *147:Y 0.000404427
3 *20:10 0.000404427
4 *147:A *20:10 0.000102301
5 *147:B *20:10 5.37348e-06
6 *148:A *20:10 0
7 *16:10 *20:10 0
8 *17:8 *20:10 0
*RES
1 *147:Y *20:10 44.2143 
2 *20:10 *152:A 38 
*END

*D_NET *21 0.00098819
*CONN
*I *153:A I *D sky130_fd_sc_hd__buf_2
*I *141:Y O *D sky130_fd_sc_hd__a21oi_1
*CAP
1 *153:A 0
2 *141:Y 0.000403848
3 *21:10 0.000403848
4 *18:12 *21:10 2.93985e-05
5 *18:22 *21:10 0.000151096
*RES
1 *141:Y *21:10 44.2143 
2 *21:10 *153:A 38 
*END

*D_NET *22 0.00113511
*CONN
*I *154:A I *D sky130_fd_sc_hd__buf_2
*I *145:X O *D sky130_fd_sc_hd__a31o_1
*CAP
1 *154:A 4.23312e-05
2 *145:X 0.000496778
3 *22:10 0.00053911
4 *145:A2 *22:10 5.68958e-05
*RES
1 *145:X *22:10 46.99 
2 *22:10 *154:A 38.6214 
*END

*D_NET *23 0.000612883
*CONN
*I *155:A I *D sky130_fd_sc_hd__buf_2
*I *143:Y O *D sky130_fd_sc_hd__inv_2
*CAP
1 *155:A 0
2 *143:Y 0.000306442
3 *23:10 0.000306442
4 *19:8 *23:10 0
*RES
1 *143:Y *23:10 43.4893 
2 *23:10 *155:A 38 
*END
