*SPEF "ieee 1481-1999"
*DESIGN "mult8_2bits_1op_e17161"
*DATE "19:16:06 Tuesday September 16, 2025"
*VENDOR "The OpenROAD Project"
*PROGRAM "OpenROAD"
*VERSION "edf00dff99f6c40d67a30c0e22a8191c5d2ed9d6"
*DESIGN_FLOW "NAME_SCOPE LOCAL" "PIN_CAP NONE"
*DIVIDER /
*DELIMITER :
*BUS_DELIMITER []
*T_UNIT 1 NS
*C_UNIT 1 PF
*R_UNIT 1 OHM
*L_UNIT 1 HENRY

*NAME_MAP
*1 A[0]
*2 A[1]
*3 A[2]
*4 A[3]
*5 A[4]
*6 A[5]
*7 A[6]
*8 A[7]
*9 B[0]
*10 B[1]
*11 B[2]
*12 B[3]
*13 B[4]
*14 B[5]
*15 B[6]
*16 B[7]
*17 P[0]
*18 P[10]
*19 P[11]
*20 P[12]
*21 P[13]
*22 P[14]
*23 P[15]
*24 P[1]
*25 P[2]
*26 P[3]
*27 P[4]
*28 P[5]
*29 P[6]
*30 P[7]
*31 P[8]
*32 P[9]
*35 _000_
*36 _001_
*37 _002_
*38 _003_
*39 _004_
*40 _005_
*41 _006_
*42 _007_
*43 _008_
*44 _009_
*45 _010_
*46 _011_
*47 _012_
*48 _013_
*49 _014_
*50 _015_
*51 _016_
*52 _017_
*53 _018_
*54 _019_
*55 _020_
*56 _021_
*57 _022_
*58 _023_
*59 _024_
*60 _025_
*61 _026_
*62 _027_
*63 _028_
*64 _029_
*65 _030_
*66 _031_
*67 _032_
*68 _033_
*69 _034_
*70 _035_
*71 _036_
*72 _037_
*73 _038_
*74 _039_
*75 _040_
*76 _041_
*77 _042_
*78 _043_
*79 _044_
*80 _045_
*81 _046_
*82 _047_
*83 _048_
*84 _049_
*85 _050_
*86 _051_
*87 _052_
*88 _053_
*89 _054_
*90 _055_
*91 _056_
*92 _057_
*93 _058_
*94 _059_
*95 _060_
*96 _061_
*97 _062_
*98 _063_
*99 _064_
*100 _065_
*101 _066_
*102 _067_
*103 _068_
*104 _069_
*105 _070_
*106 _071_
*107 _072_
*108 _073_
*109 _074_
*110 _075_
*111 _076_
*112 _077_
*113 _078_
*114 _079_
*115 _080_
*116 _081_
*117 _082_
*118 _083_
*119 _084_
*120 _085_
*121 _086_
*122 _087_
*123 _088_
*124 _089_
*125 _090_
*126 _091_
*127 _092_
*128 _093_
*129 _094_
*130 _095_
*131 _096_
*132 _097_
*133 _098_
*134 _099_
*135 _100_
*136 _101_
*137 _102_
*138 _103_
*139 _104_
*140 _105_
*141 _106_
*142 _107_
*143 _108_
*144 _109_
*145 _110_
*146 _111_
*147 _112_
*148 _113_
*149 _114_
*150 _115_
*151 _116_
*152 _117_
*153 _118_
*154 _119_
*155 _120_
*156 _121_
*157 _122_
*158 _123_
*159 _124_
*160 _125_
*161 _126_
*162 _127_
*163 _128_
*164 _129_
*165 _130_
*166 _131_
*167 _132_
*168 _133_
*169 _134_
*170 _135_
*171 _136_
*172 _137_
*173 _138_
*174 _139_
*175 _140_
*176 _141_
*177 _142_
*178 _143_
*179 _144_
*180 _145_
*181 _146_
*182 _147_
*183 _148_
*184 _149_
*185 _150_
*186 _151_
*187 _152_
*188 _153_
*189 _154_
*190 _155_
*191 _156_
*192 _157_
*193 _158_
*194 _159_
*195 _160_
*196 _161_
*197 _162_
*198 _163_
*199 _164_
*200 _165_
*201 _166_
*202 _167_
*203 _168_
*204 _169_
*205 _170_
*206 _171_
*207 _172_
*208 _173_
*209 _174_
*210 _175_
*211 _176_
*212 _177_
*213 _178_
*214 _179_
*215 _180_
*216 _181_
*217 _182_
*218 _183_
*219 _184_
*220 _185_
*221 _186_
*222 _187_
*223 _188_
*224 _189_
*225 _190_
*226 _191_
*227 _192_
*228 _193_
*229 _194_
*230 _195_
*231 _196_
*232 _197_
*233 _198_
*234 _199_
*235 _200_
*236 _201_
*237 _202_
*238 _203_
*239 _204_
*240 _205_
*241 _206_
*242 _207_
*243 _208_
*244 _209_
*245 _210_
*246 _211_
*247 _212_
*248 _213_
*249 _214_
*250 _215_
*251 _216_
*252 _217_
*253 _218_
*254 _219_
*255 _220_
*256 _221_
*257 _222_
*258 _223_
*259 _224_
*260 _225_
*261 _226_
*262 _227_
*263 _228_
*264 _229_
*265 _230_
*266 _231_
*267 _232_
*268 _233_
*269 _234_
*270 _235_
*271 _236_
*272 _237_
*273 _238_
*274 _239_
*275 _240_
*276 _241_
*277 _242_
*278 _243_
*279 _244_
*280 _245_
*281 _246_
*282 _247_
*283 _248_
*284 _249_
*285 _250_
*286 _251_
*287 _252_
*288 _253_
*289 _254_
*290 _255_
*291 _256_
*292 _257_
*293 _258_
*294 _259_
*295 _260_
*296 _261_
*297 _262_
*298 _263_
*299 _264_
*300 _265_
*301 _266_
*302 _267_
*303 _268_
*304 _269_
*305 _270_
*306 _271_
*307 _272_
*308 _273_
*309 _274_
*310 _275_
*311 _276_
*312 _277_
*313 _278_
*314 _279_
*315 _280_
*316 _281_
*317 _282_
*318 _283_
*319 _284_
*320 net1
*321 net10
*322 net11
*323 net12
*324 net13
*325 net14
*326 net15
*327 net16
*328 net17
*329 net18
*330 net19
*331 net2
*332 net20
*333 net21
*334 net22
*335 net23
*336 net24
*337 net25
*338 net26
*339 net27
*340 net28
*341 net29
*342 net3
*343 net30
*344 net31
*345 net32
*346 net33
*347 net34
*348 net35
*349 net36
*350 net37
*351 net38
*352 net39
*353 net4
*354 net40
*355 net41
*356 net42
*357 net43
*358 net44
*359 net45
*360 net46
*361 net47
*362 net48
*363 net49
*364 net5
*365 net50
*366 net51
*367 net52
*368 net53
*369 net54
*370 net55
*371 net56
*372 net57
*373 net58
*374 net59
*375 net6
*376 net60
*377 net61
*378 net62
*379 net63
*380 net64
*381 net65
*382 net66
*383 net67
*384 net68
*385 net69
*386 net7
*387 net70
*388 net71
*389 net72
*390 net73
*391 net74
*392 net75
*393 net76
*394 net77
*395 net78
*396 net79
*397 net8
*398 net80
*399 net81
*400 net82
*401 net83
*402 net84
*403 net85
*404 net86
*405 net87
*406 net88
*407 net9
*408 FILLER_0_109
*409 FILLER_0_113
*410 FILLER_0_121
*411 FILLER_0_126
*412 FILLER_0_138
*413 FILLER_0_141
*414 FILLER_0_15
*415 FILLER_0_155
*416 FILLER_0_161
*417 FILLER_0_169
*418 FILLER_0_177
*419 FILLER_0_182
*420 FILLER_0_197
*421 FILLER_0_205
*422 FILLER_0_217
*423 FILLER_0_225
*424 FILLER_0_237
*425 FILLER_0_245
*426 FILLER_0_251
*427 FILLER_0_253
*428 FILLER_0_261
*429 FILLER_0_266
*430 FILLER_0_27
*431 FILLER_0_278
*432 FILLER_0_281
*433 FILLER_0_29
*434 FILLER_0_293
*435 FILLER_0_3
*436 FILLER_0_305
*437 FILLER_0_309
*438 FILLER_0_321
*439 FILLER_0_333
*440 FILLER_0_337
*441 FILLER_0_349
*442 FILLER_0_361
*443 FILLER_0_365
*444 FILLER_0_377
*445 FILLER_0_389
*446 FILLER_0_393
*447 FILLER_0_405
*448 FILLER_0_41
*449 FILLER_0_53
*450 FILLER_0_57
*451 FILLER_0_69
*452 FILLER_0_81
*453 FILLER_0_85
*454 FILLER_0_97
*455 FILLER_10_109
*456 FILLER_10_121
*457 FILLER_10_133
*458 FILLER_10_139
*459 FILLER_10_141
*460 FILLER_10_15
*461 FILLER_10_155
*462 FILLER_10_167
*463 FILLER_10_175
*464 FILLER_10_191
*465 FILLER_10_195
*466 FILLER_10_197
*467 FILLER_10_209
*468 FILLER_10_221
*469 FILLER_10_233
*470 FILLER_10_245
*471 FILLER_10_251
*472 FILLER_10_253
*473 FILLER_10_27
*474 FILLER_10_271
*475 FILLER_10_283
*476 FILLER_10_29
*477 FILLER_10_295
*478 FILLER_10_3
*479 FILLER_10_307
*480 FILLER_10_309
*481 FILLER_10_321
*482 FILLER_10_333
*483 FILLER_10_345
*484 FILLER_10_357
*485 FILLER_10_363
*486 FILLER_10_365
*487 FILLER_10_377
*488 FILLER_10_389
*489 FILLER_10_401
*490 FILLER_10_41
*491 FILLER_10_53
*492 FILLER_10_65
*493 FILLER_10_77
*494 FILLER_10_83
*495 FILLER_10_85
*496 FILLER_10_97
*497 FILLER_11_105
*498 FILLER_11_111
*499 FILLER_11_113
*500 FILLER_11_125
*501 FILLER_11_137
*502 FILLER_11_144
*503 FILLER_11_15
*504 FILLER_11_158
*505 FILLER_11_166
*506 FILLER_11_169
*507 FILLER_11_177
*508 FILLER_11_199
*509 FILLER_11_211
*510 FILLER_11_223
*511 FILLER_11_225
*512 FILLER_11_237
*513 FILLER_11_249
*514 FILLER_11_257
*515 FILLER_11_267
*516 FILLER_11_27
*517 FILLER_11_279
*518 FILLER_11_281
*519 FILLER_11_293
*520 FILLER_11_3
*521 FILLER_11_305
*522 FILLER_11_317
*523 FILLER_11_329
*524 FILLER_11_335
*525 FILLER_11_337
*526 FILLER_11_349
*527 FILLER_11_361
*528 FILLER_11_373
*529 FILLER_11_385
*530 FILLER_11_39
*531 FILLER_11_391
*532 FILLER_11_393
*533 FILLER_11_405
*534 FILLER_11_51
*535 FILLER_11_55
*536 FILLER_11_57
*537 FILLER_11_69
*538 FILLER_11_81
*539 FILLER_11_93
*540 FILLER_12_109
*541 FILLER_12_121
*542 FILLER_12_133
*543 FILLER_12_139
*544 FILLER_12_141
*545 FILLER_12_148
*546 FILLER_12_15
*547 FILLER_12_165
*548 FILLER_12_192
*549 FILLER_12_197
*550 FILLER_12_209
*551 FILLER_12_221
*552 FILLER_12_233
*553 FILLER_12_245
*554 FILLER_12_251
*555 FILLER_12_253
*556 FILLER_12_265
*557 FILLER_12_27
*558 FILLER_12_277
*559 FILLER_12_289
*560 FILLER_12_29
*561 FILLER_12_3
*562 FILLER_12_301
*563 FILLER_12_307
*564 FILLER_12_309
*565 FILLER_12_321
*566 FILLER_12_333
*567 FILLER_12_345
*568 FILLER_12_357
*569 FILLER_12_363
*570 FILLER_12_365
*571 FILLER_12_377
*572 FILLER_12_389
*573 FILLER_12_401
*574 FILLER_12_41
*575 FILLER_12_53
*576 FILLER_12_65
*577 FILLER_12_77
*578 FILLER_12_83
*579 FILLER_12_85
*580 FILLER_12_97
*581 FILLER_13_105
*582 FILLER_13_111
*583 FILLER_13_113
*584 FILLER_13_125
*585 FILLER_13_137
*586 FILLER_13_141
*587 FILLER_13_146
*588 FILLER_13_15
*589 FILLER_13_151
*590 FILLER_13_163
*591 FILLER_13_167
*592 FILLER_13_169
*593 FILLER_13_192
*594 FILLER_13_204
*595 FILLER_13_216
*596 FILLER_13_222
*597 FILLER_13_225
*598 FILLER_13_237
*599 FILLER_13_249
*600 FILLER_13_257
*601 FILLER_13_264
*602 FILLER_13_27
*603 FILLER_13_276
*604 FILLER_13_281
*605 FILLER_13_293
*606 FILLER_13_3
*607 FILLER_13_305
*608 FILLER_13_317
*609 FILLER_13_329
*610 FILLER_13_335
*611 FILLER_13_337
*612 FILLER_13_349
*613 FILLER_13_361
*614 FILLER_13_373
*615 FILLER_13_385
*616 FILLER_13_39
*617 FILLER_13_391
*618 FILLER_13_393
*619 FILLER_13_405
*620 FILLER_13_51
*621 FILLER_13_55
*622 FILLER_13_57
*623 FILLER_13_69
*624 FILLER_13_81
*625 FILLER_13_93
*626 FILLER_14_109
*627 FILLER_14_121
*628 FILLER_14_133
*629 FILLER_14_139
*630 FILLER_14_141
*631 FILLER_14_15
*632 FILLER_14_159
*633 FILLER_14_165
*634 FILLER_14_190
*635 FILLER_14_204
*636 FILLER_14_208
*637 FILLER_14_225
*638 FILLER_14_237
*639 FILLER_14_249
*640 FILLER_14_260
*641 FILLER_14_27
*642 FILLER_14_272
*643 FILLER_14_284
*644 FILLER_14_29
*645 FILLER_14_296
*646 FILLER_14_3
*647 FILLER_14_309
*648 FILLER_14_321
*649 FILLER_14_333
*650 FILLER_14_345
*651 FILLER_14_357
*652 FILLER_14_363
*653 FILLER_14_365
*654 FILLER_14_377
*655 FILLER_14_389
*656 FILLER_14_401
*657 FILLER_14_41
*658 FILLER_14_53
*659 FILLER_14_65
*660 FILLER_14_77
*661 FILLER_14_83
*662 FILLER_14_85
*663 FILLER_14_97
*664 FILLER_15_105
*665 FILLER_15_111
*666 FILLER_15_113
*667 FILLER_15_125
*668 FILLER_15_137
*669 FILLER_15_149
*670 FILLER_15_15
*671 FILLER_15_164
*672 FILLER_15_169
*673 FILLER_15_188
*674 FILLER_15_200
*675 FILLER_15_212
*676 FILLER_15_220
*677 FILLER_15_225
*678 FILLER_15_237
*679 FILLER_15_249
*680 FILLER_15_260
*681 FILLER_15_268
*682 FILLER_15_27
*683 FILLER_15_279
*684 FILLER_15_281
*685 FILLER_15_293
*686 FILLER_15_3
*687 FILLER_15_305
*688 FILLER_15_317
*689 FILLER_15_329
*690 FILLER_15_335
*691 FILLER_15_337
*692 FILLER_15_349
*693 FILLER_15_361
*694 FILLER_15_373
*695 FILLER_15_385
*696 FILLER_15_39
*697 FILLER_15_391
*698 FILLER_15_393
*699 FILLER_15_405
*700 FILLER_15_51
*701 FILLER_15_55
*702 FILLER_15_57
*703 FILLER_15_69
*704 FILLER_15_81
*705 FILLER_15_93
*706 FILLER_16_111
*707 FILLER_16_123
*708 FILLER_16_135
*709 FILLER_16_139
*710 FILLER_16_141
*711 FILLER_16_15
*712 FILLER_16_153
*713 FILLER_16_167
*714 FILLER_16_179
*715 FILLER_16_184
*716 FILLER_16_197
*717 FILLER_16_215
*718 FILLER_16_227
*719 FILLER_16_239
*720 FILLER_16_251
*721 FILLER_16_260
*722 FILLER_16_27
*723 FILLER_16_272
*724 FILLER_16_284
*725 FILLER_16_29
*726 FILLER_16_298
*727 FILLER_16_3
*728 FILLER_16_306
*729 FILLER_16_309
*730 FILLER_16_321
*731 FILLER_16_333
*732 FILLER_16_345
*733 FILLER_16_357
*734 FILLER_16_363
*735 FILLER_16_365
*736 FILLER_16_377
*737 FILLER_16_389
*738 FILLER_16_401
*739 FILLER_16_41
*740 FILLER_16_53
*741 FILLER_16_65
*742 FILLER_16_77
*743 FILLER_16_83
*744 FILLER_16_85
*745 FILLER_16_97
*746 FILLER_17_110
*747 FILLER_17_123
*748 FILLER_17_135
*749 FILLER_17_147
*750 FILLER_17_15
*751 FILLER_17_158
*752 FILLER_17_166
*753 FILLER_17_169
*754 FILLER_17_181
*755 FILLER_17_193
*756 FILLER_17_205
*757 FILLER_17_217
*758 FILLER_17_223
*759 FILLER_17_225
*760 FILLER_17_237
*761 FILLER_17_245
*762 FILLER_17_262
*763 FILLER_17_27
*764 FILLER_17_274
*765 FILLER_17_281
*766 FILLER_17_285
*767 FILLER_17_3
*768 FILLER_17_306
*769 FILLER_17_318
*770 FILLER_17_330
*771 FILLER_17_337
*772 FILLER_17_349
*773 FILLER_17_361
*774 FILLER_17_373
*775 FILLER_17_385
*776 FILLER_17_39
*777 FILLER_17_391
*778 FILLER_17_393
*779 FILLER_17_405
*780 FILLER_17_51
*781 FILLER_17_55
*782 FILLER_17_57
*783 FILLER_17_69
*784 FILLER_17_81
*785 FILLER_17_93
*786 FILLER_18_111
*787 FILLER_18_129
*788 FILLER_18_137
*789 FILLER_18_141
*790 FILLER_18_147
*791 FILLER_18_15
*792 FILLER_18_153
*793 FILLER_18_158
*794 FILLER_18_168
*795 FILLER_18_180
*796 FILLER_18_192
*797 FILLER_18_197
*798 FILLER_18_209
*799 FILLER_18_221
*800 FILLER_18_233
*801 FILLER_18_245
*802 FILLER_18_251
*803 FILLER_18_253
*804 FILLER_18_265
*805 FILLER_18_27
*806 FILLER_18_277
*807 FILLER_18_289
*808 FILLER_18_29
*809 FILLER_18_295
*810 FILLER_18_3
*811 FILLER_18_301
*812 FILLER_18_307
*813 FILLER_18_309
*814 FILLER_18_324
*815 FILLER_18_336
*816 FILLER_18_348
*817 FILLER_18_360
*818 FILLER_18_365
*819 FILLER_18_377
*820 FILLER_18_389
*821 FILLER_18_401
*822 FILLER_18_41
*823 FILLER_18_53
*824 FILLER_18_65
*825 FILLER_18_77
*826 FILLER_18_83
*827 FILLER_18_85
*828 FILLER_18_93
*829 FILLER_19_105
*830 FILLER_19_111
*831 FILLER_19_120
*832 FILLER_19_133
*833 FILLER_19_141
*834 FILLER_19_148
*835 FILLER_19_15
*836 FILLER_19_160
*837 FILLER_19_169
*838 FILLER_19_184
*839 FILLER_19_192
*840 FILLER_19_200
*841 FILLER_19_215
*842 FILLER_19_223
*843 FILLER_19_229
*844 FILLER_19_241
*845 FILLER_19_247
*846 FILLER_19_259
*847 FILLER_19_27
*848 FILLER_19_271
*849 FILLER_19_279
*850 FILLER_19_281
*851 FILLER_19_293
*852 FILLER_19_299
*853 FILLER_19_3
*854 FILLER_19_306
*855 FILLER_19_322
*856 FILLER_19_334
*857 FILLER_19_337
*858 FILLER_19_349
*859 FILLER_19_361
*860 FILLER_19_373
*861 FILLER_19_385
*862 FILLER_19_39
*863 FILLER_19_391
*864 FILLER_19_393
*865 FILLER_19_405
*866 FILLER_19_51
*867 FILLER_19_55
*868 FILLER_19_57
*869 FILLER_19_69
*870 FILLER_19_81
*871 FILLER_19_93
*872 FILLER_1_105
*873 FILLER_1_111
*874 FILLER_1_113
*875 FILLER_1_125
*876 FILLER_1_137
*877 FILLER_1_15
*878 FILLER_1_161
*879 FILLER_1_167
*880 FILLER_1_169
*881 FILLER_1_181
*882 FILLER_1_189
*883 FILLER_1_195
*884 FILLER_1_207
*885 FILLER_1_219
*886 FILLER_1_223
*887 FILLER_1_225
*888 FILLER_1_237
*889 FILLER_1_249
*890 FILLER_1_261
*891 FILLER_1_27
*892 FILLER_1_273
*893 FILLER_1_279
*894 FILLER_1_281
*895 FILLER_1_293
*896 FILLER_1_3
*897 FILLER_1_305
*898 FILLER_1_317
*899 FILLER_1_329
*900 FILLER_1_335
*901 FILLER_1_337
*902 FILLER_1_349
*903 FILLER_1_361
*904 FILLER_1_373
*905 FILLER_1_385
*906 FILLER_1_39
*907 FILLER_1_391
*908 FILLER_1_393
*909 FILLER_1_405
*910 FILLER_1_51
*911 FILLER_1_55
*912 FILLER_1_57
*913 FILLER_1_69
*914 FILLER_1_81
*915 FILLER_1_93
*916 FILLER_20_109
*917 FILLER_20_121
*918 FILLER_20_133
*919 FILLER_20_139
*920 FILLER_20_15
*921 FILLER_20_162
*922 FILLER_20_174
*923 FILLER_20_178
*924 FILLER_20_194
*925 FILLER_20_207
*926 FILLER_20_219
*927 FILLER_20_223
*928 FILLER_20_229
*929 FILLER_20_248
*930 FILLER_20_253
*931 FILLER_20_265
*932 FILLER_20_27
*933 FILLER_20_277
*934 FILLER_20_289
*935 FILLER_20_29
*936 FILLER_20_3
*937 FILLER_20_301
*938 FILLER_20_307
*939 FILLER_20_309
*940 FILLER_20_321
*941 FILLER_20_333
*942 FILLER_20_345
*943 FILLER_20_357
*944 FILLER_20_363
*945 FILLER_20_365
*946 FILLER_20_377
*947 FILLER_20_389
*948 FILLER_20_397
*949 FILLER_20_41
*950 FILLER_20_53
*951 FILLER_20_65
*952 FILLER_20_77
*953 FILLER_20_83
*954 FILLER_20_85
*955 FILLER_20_97
*956 FILLER_21_105
*957 FILLER_21_111
*958 FILLER_21_113
*959 FILLER_21_125
*960 FILLER_21_141
*961 FILLER_21_15
*962 FILLER_21_153
*963 FILLER_21_165
*964 FILLER_21_169
*965 FILLER_21_181
*966 FILLER_21_193
*967 FILLER_21_203
*968 FILLER_21_215
*969 FILLER_21_223
*970 FILLER_21_225
*971 FILLER_21_237
*972 FILLER_21_249
*973 FILLER_21_261
*974 FILLER_21_27
*975 FILLER_21_273
*976 FILLER_21_279
*977 FILLER_21_281
*978 FILLER_21_293
*979 FILLER_21_3
*980 FILLER_21_305
*981 FILLER_21_317
*982 FILLER_21_329
*983 FILLER_21_335
*984 FILLER_21_337
*985 FILLER_21_349
*986 FILLER_21_361
*987 FILLER_21_373
*988 FILLER_21_385
*989 FILLER_21_39
*990 FILLER_21_391
*991 FILLER_21_393
*992 FILLER_21_405
*993 FILLER_21_51
*994 FILLER_21_55
*995 FILLER_21_57
*996 FILLER_21_69
*997 FILLER_21_81
*998 FILLER_21_93
*999 FILLER_22_109
*1000 FILLER_22_121
*1001 FILLER_22_133
*1002 FILLER_22_139
*1003 FILLER_22_141
*1004 FILLER_22_15
*1005 FILLER_22_153
*1006 FILLER_22_165
*1007 FILLER_22_177
*1008 FILLER_22_181
*1009 FILLER_22_192
*1010 FILLER_22_197
*1011 FILLER_22_211
*1012 FILLER_22_215
*1013 FILLER_22_219
*1014 FILLER_22_231
*1015 FILLER_22_243
*1016 FILLER_22_251
*1017 FILLER_22_253
*1018 FILLER_22_265
*1019 FILLER_22_27
*1020 FILLER_22_283
*1021 FILLER_22_29
*1022 FILLER_22_295
*1023 FILLER_22_3
*1024 FILLER_22_307
*1025 FILLER_22_309
*1026 FILLER_22_321
*1027 FILLER_22_333
*1028 FILLER_22_345
*1029 FILLER_22_357
*1030 FILLER_22_363
*1031 FILLER_22_365
*1032 FILLER_22_377
*1033 FILLER_22_389
*1034 FILLER_22_401
*1035 FILLER_22_41
*1036 FILLER_22_53
*1037 FILLER_22_65
*1038 FILLER_22_77
*1039 FILLER_22_83
*1040 FILLER_22_85
*1041 FILLER_22_97
*1042 FILLER_23_110
*1043 FILLER_23_124
*1044 FILLER_23_136
*1045 FILLER_23_148
*1046 FILLER_23_15
*1047 FILLER_23_160
*1048 FILLER_23_169
*1049 FILLER_23_181
*1050 FILLER_23_193
*1051 FILLER_23_199
*1052 FILLER_23_207
*1053 FILLER_23_219
*1054 FILLER_23_230
*1055 FILLER_23_238
*1056 FILLER_23_258
*1057 FILLER_23_265
*1058 FILLER_23_27
*1059 FILLER_23_278
*1060 FILLER_23_281
*1061 FILLER_23_285
*1062 FILLER_23_297
*1063 FILLER_23_3
*1064 FILLER_23_311
*1065 FILLER_23_320
*1066 FILLER_23_332
*1067 FILLER_23_337
*1068 FILLER_23_349
*1069 FILLER_23_361
*1070 FILLER_23_373
*1071 FILLER_23_385
*1072 FILLER_23_39
*1073 FILLER_23_391
*1074 FILLER_23_393
*1075 FILLER_23_405
*1076 FILLER_23_51
*1077 FILLER_23_55
*1078 FILLER_23_57
*1079 FILLER_23_69
*1080 FILLER_23_81
*1081 FILLER_23_93
*1082 FILLER_24_118
*1083 FILLER_24_130
*1084 FILLER_24_138
*1085 FILLER_24_141
*1086 FILLER_24_15
*1087 FILLER_24_153
*1088 FILLER_24_165
*1089 FILLER_24_177
*1090 FILLER_24_189
*1091 FILLER_24_207
*1092 FILLER_24_219
*1093 FILLER_24_231
*1094 FILLER_24_243
*1095 FILLER_24_251
*1096 FILLER_24_253
*1097 FILLER_24_265
*1098 FILLER_24_27
*1099 FILLER_24_277
*1100 FILLER_24_285
*1101 FILLER_24_29
*1102 FILLER_24_294
*1103 FILLER_24_3
*1104 FILLER_24_306
*1105 FILLER_24_337
*1106 FILLER_24_349
*1107 FILLER_24_361
*1108 FILLER_24_365
*1109 FILLER_24_377
*1110 FILLER_24_389
*1111 FILLER_24_401
*1112 FILLER_24_41
*1113 FILLER_24_53
*1114 FILLER_24_65
*1115 FILLER_24_77
*1116 FILLER_24_83
*1117 FILLER_24_85
*1118 FILLER_25_105
*1119 FILLER_25_111
*1120 FILLER_25_113
*1121 FILLER_25_121
*1122 FILLER_25_129
*1123 FILLER_25_141
*1124 FILLER_25_15
*1125 FILLER_25_153
*1126 FILLER_25_165
*1127 FILLER_25_169
*1128 FILLER_25_181
*1129 FILLER_25_191
*1130 FILLER_25_203
*1131 FILLER_25_215
*1132 FILLER_25_223
*1133 FILLER_25_225
*1134 FILLER_25_237
*1135 FILLER_25_249
*1136 FILLER_25_261
*1137 FILLER_25_27
*1138 FILLER_25_273
*1139 FILLER_25_279
*1140 FILLER_25_281
*1141 FILLER_25_285
*1142 FILLER_25_293
*1143 FILLER_25_3
*1144 FILLER_25_305
*1145 FILLER_25_317
*1146 FILLER_25_329
*1147 FILLER_25_335
*1148 FILLER_25_337
*1149 FILLER_25_349
*1150 FILLER_25_361
*1151 FILLER_25_373
*1152 FILLER_25_385
*1153 FILLER_25_39
*1154 FILLER_25_391
*1155 FILLER_25_393
*1156 FILLER_25_397
*1157 FILLER_25_51
*1158 FILLER_25_55
*1159 FILLER_25_57
*1160 FILLER_25_69
*1161 FILLER_25_81
*1162 FILLER_25_93
*1163 FILLER_26_113
*1164 FILLER_26_125
*1165 FILLER_26_137
*1166 FILLER_26_141
*1167 FILLER_26_149
*1168 FILLER_26_15
*1169 FILLER_26_156
*1170 FILLER_26_168
*1171 FILLER_26_180
*1172 FILLER_26_192
*1173 FILLER_26_197
*1174 FILLER_26_209
*1175 FILLER_26_221
*1176 FILLER_26_233
*1177 FILLER_26_245
*1178 FILLER_26_251
*1179 FILLER_26_253
*1180 FILLER_26_265
*1181 FILLER_26_27
*1182 FILLER_26_277
*1183 FILLER_26_289
*1184 FILLER_26_29
*1185 FILLER_26_3
*1186 FILLER_26_301
*1187 FILLER_26_307
*1188 FILLER_26_309
*1189 FILLER_26_321
*1190 FILLER_26_333
*1191 FILLER_26_345
*1192 FILLER_26_357
*1193 FILLER_26_363
*1194 FILLER_26_365
*1195 FILLER_26_377
*1196 FILLER_26_389
*1197 FILLER_26_401
*1198 FILLER_26_41
*1199 FILLER_26_53
*1200 FILLER_26_65
*1201 FILLER_26_77
*1202 FILLER_26_83
*1203 FILLER_26_85
*1204 FILLER_26_97
*1205 FILLER_27_109
*1206 FILLER_27_113
*1207 FILLER_27_125
*1208 FILLER_27_137
*1209 FILLER_27_15
*1210 FILLER_27_164
*1211 FILLER_27_169
*1212 FILLER_27_181
*1213 FILLER_27_193
*1214 FILLER_27_218
*1215 FILLER_27_225
*1216 FILLER_27_233
*1217 FILLER_27_244
*1218 FILLER_27_257
*1219 FILLER_27_269
*1220 FILLER_27_27
*1221 FILLER_27_277
*1222 FILLER_27_281
*1223 FILLER_27_293
*1224 FILLER_27_3
*1225 FILLER_27_305
*1226 FILLER_27_317
*1227 FILLER_27_329
*1228 FILLER_27_335
*1229 FILLER_27_337
*1230 FILLER_27_349
*1231 FILLER_27_361
*1232 FILLER_27_373
*1233 FILLER_27_385
*1234 FILLER_27_39
*1235 FILLER_27_391
*1236 FILLER_27_393
*1237 FILLER_27_405
*1238 FILLER_27_51
*1239 FILLER_27_55
*1240 FILLER_27_57
*1241 FILLER_27_69
*1242 FILLER_27_81
*1243 FILLER_27_93
*1244 FILLER_28_109
*1245 FILLER_28_121
*1246 FILLER_28_133
*1247 FILLER_28_139
*1248 FILLER_28_149
*1249 FILLER_28_15
*1250 FILLER_28_161
*1251 FILLER_28_173
*1252 FILLER_28_185
*1253 FILLER_28_193
*1254 FILLER_28_197
*1255 FILLER_28_209
*1256 FILLER_28_221
*1257 FILLER_28_237
*1258 FILLER_28_249
*1259 FILLER_28_253
*1260 FILLER_28_265
*1261 FILLER_28_27
*1262 FILLER_28_277
*1263 FILLER_28_289
*1264 FILLER_28_29
*1265 FILLER_28_3
*1266 FILLER_28_301
*1267 FILLER_28_307
*1268 FILLER_28_309
*1269 FILLER_28_321
*1270 FILLER_28_333
*1271 FILLER_28_345
*1272 FILLER_28_357
*1273 FILLER_28_363
*1274 FILLER_28_365
*1275 FILLER_28_377
*1276 FILLER_28_389
*1277 FILLER_28_401
*1278 FILLER_28_41
*1279 FILLER_28_53
*1280 FILLER_28_65
*1281 FILLER_28_77
*1282 FILLER_28_83
*1283 FILLER_28_85
*1284 FILLER_28_97
*1285 FILLER_29_103
*1286 FILLER_29_111
*1287 FILLER_29_113
*1288 FILLER_29_125
*1289 FILLER_29_137
*1290 FILLER_29_15
*1291 FILLER_29_156
*1292 FILLER_29_169
*1293 FILLER_29_181
*1294 FILLER_29_187
*1295 FILLER_29_195
*1296 FILLER_29_210
*1297 FILLER_29_222
*1298 FILLER_29_225
*1299 FILLER_29_237
*1300 FILLER_29_249
*1301 FILLER_29_261
*1302 FILLER_29_268
*1303 FILLER_29_27
*1304 FILLER_29_281
*1305 FILLER_29_293
*1306 FILLER_29_3
*1307 FILLER_29_305
*1308 FILLER_29_317
*1309 FILLER_29_329
*1310 FILLER_29_335
*1311 FILLER_29_337
*1312 FILLER_29_349
*1313 FILLER_29_361
*1314 FILLER_29_373
*1315 FILLER_29_385
*1316 FILLER_29_39
*1317 FILLER_29_391
*1318 FILLER_29_393
*1319 FILLER_29_405
*1320 FILLER_29_51
*1321 FILLER_29_55
*1322 FILLER_29_57
*1323 FILLER_29_69
*1324 FILLER_29_81
*1325 FILLER_29_93
*1326 FILLER_2_109
*1327 FILLER_2_121
*1328 FILLER_2_15
*1329 FILLER_2_166
*1330 FILLER_2_178
*1331 FILLER_2_189
*1332 FILLER_2_195
*1333 FILLER_2_197
*1334 FILLER_2_209
*1335 FILLER_2_221
*1336 FILLER_2_236
*1337 FILLER_2_243
*1338 FILLER_2_251
*1339 FILLER_2_253
*1340 FILLER_2_265
*1341 FILLER_2_27
*1342 FILLER_2_277
*1343 FILLER_2_289
*1344 FILLER_2_29
*1345 FILLER_2_3
*1346 FILLER_2_301
*1347 FILLER_2_307
*1348 FILLER_2_309
*1349 FILLER_2_321
*1350 FILLER_2_333
*1351 FILLER_2_345
*1352 FILLER_2_357
*1353 FILLER_2_363
*1354 FILLER_2_365
*1355 FILLER_2_377
*1356 FILLER_2_389
*1357 FILLER_2_401
*1358 FILLER_2_41
*1359 FILLER_2_53
*1360 FILLER_2_65
*1361 FILLER_2_77
*1362 FILLER_2_83
*1363 FILLER_2_85
*1364 FILLER_2_97
*1365 FILLER_30_110
*1366 FILLER_30_122
*1367 FILLER_30_134
*1368 FILLER_30_141
*1369 FILLER_30_15
*1370 FILLER_30_150
*1371 FILLER_30_162
*1372 FILLER_30_174
*1373 FILLER_30_186
*1374 FILLER_30_194
*1375 FILLER_30_197
*1376 FILLER_30_209
*1377 FILLER_30_221
*1378 FILLER_30_233
*1379 FILLER_30_245
*1380 FILLER_30_251
*1381 FILLER_30_253
*1382 FILLER_30_257
*1383 FILLER_30_262
*1384 FILLER_30_27
*1385 FILLER_30_270
*1386 FILLER_30_278
*1387 FILLER_30_29
*1388 FILLER_30_290
*1389 FILLER_30_296
*1390 FILLER_30_3
*1391 FILLER_30_307
*1392 FILLER_30_309
*1393 FILLER_30_321
*1394 FILLER_30_333
*1395 FILLER_30_345
*1396 FILLER_30_357
*1397 FILLER_30_363
*1398 FILLER_30_365
*1399 FILLER_30_377
*1400 FILLER_30_389
*1401 FILLER_30_401
*1402 FILLER_30_41
*1403 FILLER_30_53
*1404 FILLER_30_65
*1405 FILLER_30_77
*1406 FILLER_30_83
*1407 FILLER_30_85
*1408 FILLER_30_93
*1409 FILLER_31_110
*1410 FILLER_31_113
*1411 FILLER_31_125
*1412 FILLER_31_137
*1413 FILLER_31_149
*1414 FILLER_31_15
*1415 FILLER_31_161
*1416 FILLER_31_167
*1417 FILLER_31_169
*1418 FILLER_31_181
*1419 FILLER_31_193
*1420 FILLER_31_204
*1421 FILLER_31_216
*1422 FILLER_31_225
*1423 FILLER_31_233
*1424 FILLER_31_241
*1425 FILLER_31_253
*1426 FILLER_31_265
*1427 FILLER_31_27
*1428 FILLER_31_277
*1429 FILLER_31_281
*1430 FILLER_31_293
*1431 FILLER_31_3
*1432 FILLER_31_305
*1433 FILLER_31_317
*1434 FILLER_31_329
*1435 FILLER_31_335
*1436 FILLER_31_337
*1437 FILLER_31_349
*1438 FILLER_31_361
*1439 FILLER_31_373
*1440 FILLER_31_385
*1441 FILLER_31_39
*1442 FILLER_31_391
*1443 FILLER_31_393
*1444 FILLER_31_405
*1445 FILLER_31_51
*1446 FILLER_31_55
*1447 FILLER_31_57
*1448 FILLER_31_69
*1449 FILLER_31_81
*1450 FILLER_31_93
*1451 FILLER_32_109
*1452 FILLER_32_121
*1453 FILLER_32_133
*1454 FILLER_32_139
*1455 FILLER_32_141
*1456 FILLER_32_15
*1457 FILLER_32_153
*1458 FILLER_32_165
*1459 FILLER_32_177
*1460 FILLER_32_193
*1461 FILLER_32_197
*1462 FILLER_32_209
*1463 FILLER_32_221
*1464 FILLER_32_229
*1465 FILLER_32_250
*1466 FILLER_32_253
*1467 FILLER_32_265
*1468 FILLER_32_27
*1469 FILLER_32_277
*1470 FILLER_32_289
*1471 FILLER_32_29
*1472 FILLER_32_3
*1473 FILLER_32_301
*1474 FILLER_32_307
*1475 FILLER_32_312
*1476 FILLER_32_324
*1477 FILLER_32_336
*1478 FILLER_32_348
*1479 FILLER_32_360
*1480 FILLER_32_365
*1481 FILLER_32_377
*1482 FILLER_32_389
*1483 FILLER_32_401
*1484 FILLER_32_41
*1485 FILLER_32_53
*1486 FILLER_32_65
*1487 FILLER_32_77
*1488 FILLER_32_83
*1489 FILLER_32_85
*1490 FILLER_32_97
*1491 FILLER_33_105
*1492 FILLER_33_111
*1493 FILLER_33_113
*1494 FILLER_33_125
*1495 FILLER_33_149
*1496 FILLER_33_15
*1497 FILLER_33_162
*1498 FILLER_33_169
*1499 FILLER_33_181
*1500 FILLER_33_209
*1501 FILLER_33_221
*1502 FILLER_33_225
*1503 FILLER_33_237
*1504 FILLER_33_245
*1505 FILLER_33_254
*1506 FILLER_33_265
*1507 FILLER_33_27
*1508 FILLER_33_277
*1509 FILLER_33_281
*1510 FILLER_33_298
*1511 FILLER_33_3
*1512 FILLER_33_310
*1513 FILLER_33_318
*1514 FILLER_33_326
*1515 FILLER_33_334
*1516 FILLER_33_337
*1517 FILLER_33_349
*1518 FILLER_33_361
*1519 FILLER_33_373
*1520 FILLER_33_385
*1521 FILLER_33_39
*1522 FILLER_33_391
*1523 FILLER_33_393
*1524 FILLER_33_405
*1525 FILLER_33_51
*1526 FILLER_33_55
*1527 FILLER_33_57
*1528 FILLER_33_69
*1529 FILLER_33_81
*1530 FILLER_33_93
*1531 FILLER_34_131
*1532 FILLER_34_139
*1533 FILLER_34_141
*1534 FILLER_34_15
*1535 FILLER_34_152
*1536 FILLER_34_164
*1537 FILLER_34_176
*1538 FILLER_34_188
*1539 FILLER_34_201
*1540 FILLER_34_213
*1541 FILLER_34_225
*1542 FILLER_34_229
*1543 FILLER_34_249
*1544 FILLER_34_253
*1545 FILLER_34_265
*1546 FILLER_34_27
*1547 FILLER_34_277
*1548 FILLER_34_285
*1549 FILLER_34_29
*1550 FILLER_34_292
*1551 FILLER_34_3
*1552 FILLER_34_304
*1553 FILLER_34_309
*1554 FILLER_34_321
*1555 FILLER_34_333
*1556 FILLER_34_345
*1557 FILLER_34_357
*1558 FILLER_34_363
*1559 FILLER_34_365
*1560 FILLER_34_377
*1561 FILLER_34_389
*1562 FILLER_34_41
*1563 FILLER_34_53
*1564 FILLER_34_65
*1565 FILLER_34_77
*1566 FILLER_34_83
*1567 FILLER_34_85
*1568 FILLER_34_97
*1569 FILLER_35_105
*1570 FILLER_35_111
*1571 FILLER_35_113
*1572 FILLER_35_125
*1573 FILLER_35_138
*1574 FILLER_35_15
*1575 FILLER_35_155
*1576 FILLER_35_167
*1577 FILLER_35_169
*1578 FILLER_35_181
*1579 FILLER_35_193
*1580 FILLER_35_205
*1581 FILLER_35_222
*1582 FILLER_35_225
*1583 FILLER_35_237
*1584 FILLER_35_249
*1585 FILLER_35_261
*1586 FILLER_35_27
*1587 FILLER_35_273
*1588 FILLER_35_279
*1589 FILLER_35_281
*1590 FILLER_35_293
*1591 FILLER_35_299
*1592 FILLER_35_3
*1593 FILLER_35_311
*1594 FILLER_35_323
*1595 FILLER_35_335
*1596 FILLER_35_337
*1597 FILLER_35_349
*1598 FILLER_35_361
*1599 FILLER_35_373
*1600 FILLER_35_385
*1601 FILLER_35_39
*1602 FILLER_35_391
*1603 FILLER_35_393
*1604 FILLER_35_405
*1605 FILLER_35_51
*1606 FILLER_35_55
*1607 FILLER_35_57
*1608 FILLER_35_69
*1609 FILLER_35_81
*1610 FILLER_35_93
*1611 FILLER_36_109
*1612 FILLER_36_121
*1613 FILLER_36_129
*1614 FILLER_36_137
*1615 FILLER_36_141
*1616 FILLER_36_15
*1617 FILLER_36_153
*1618 FILLER_36_165
*1619 FILLER_36_177
*1620 FILLER_36_184
*1621 FILLER_36_197
*1622 FILLER_36_209
*1623 FILLER_36_221
*1624 FILLER_36_233
*1625 FILLER_36_253
*1626 FILLER_36_265
*1627 FILLER_36_27
*1628 FILLER_36_277
*1629 FILLER_36_289
*1630 FILLER_36_29
*1631 FILLER_36_3
*1632 FILLER_36_301
*1633 FILLER_36_307
*1634 FILLER_36_309
*1635 FILLER_36_321
*1636 FILLER_36_333
*1637 FILLER_36_345
*1638 FILLER_36_357
*1639 FILLER_36_363
*1640 FILLER_36_365
*1641 FILLER_36_377
*1642 FILLER_36_389
*1643 FILLER_36_401
*1644 FILLER_36_41
*1645 FILLER_36_53
*1646 FILLER_36_65
*1647 FILLER_36_77
*1648 FILLER_36_83
*1649 FILLER_36_85
*1650 FILLER_36_97
*1651 FILLER_37_105
*1652 FILLER_37_111
*1653 FILLER_37_113
*1654 FILLER_37_125
*1655 FILLER_37_140
*1656 FILLER_37_15
*1657 FILLER_37_152
*1658 FILLER_37_164
*1659 FILLER_37_169
*1660 FILLER_37_178
*1661 FILLER_37_190
*1662 FILLER_37_202
*1663 FILLER_37_211
*1664 FILLER_37_223
*1665 FILLER_37_225
*1666 FILLER_37_237
*1667 FILLER_37_249
*1668 FILLER_37_261
*1669 FILLER_37_27
*1670 FILLER_37_273
*1671 FILLER_37_279
*1672 FILLER_37_281
*1673 FILLER_37_293
*1674 FILLER_37_3
*1675 FILLER_37_308
*1676 FILLER_37_314
*1677 FILLER_37_320
*1678 FILLER_37_332
*1679 FILLER_37_337
*1680 FILLER_37_349
*1681 FILLER_37_361
*1682 FILLER_37_373
*1683 FILLER_37_385
*1684 FILLER_37_39
*1685 FILLER_37_391
*1686 FILLER_37_393
*1687 FILLER_37_405
*1688 FILLER_37_51
*1689 FILLER_37_55
*1690 FILLER_37_57
*1691 FILLER_37_69
*1692 FILLER_37_81
*1693 FILLER_37_93
*1694 FILLER_38_109
*1695 FILLER_38_121
*1696 FILLER_38_133
*1697 FILLER_38_139
*1698 FILLER_38_141
*1699 FILLER_38_15
*1700 FILLER_38_153
*1701 FILLER_38_157
*1702 FILLER_38_161
*1703 FILLER_38_169
*1704 FILLER_38_179
*1705 FILLER_38_191
*1706 FILLER_38_195
*1707 FILLER_38_206
*1708 FILLER_38_218
*1709 FILLER_38_230
*1710 FILLER_38_242
*1711 FILLER_38_250
*1712 FILLER_38_253
*1713 FILLER_38_265
*1714 FILLER_38_27
*1715 FILLER_38_277
*1716 FILLER_38_289
*1717 FILLER_38_29
*1718 FILLER_38_3
*1719 FILLER_38_301
*1720 FILLER_38_307
*1721 FILLER_38_309
*1722 FILLER_38_329
*1723 FILLER_38_341
*1724 FILLER_38_353
*1725 FILLER_38_361
*1726 FILLER_38_365
*1727 FILLER_38_377