*SPEF "ieee 1481-1999"
*DESIGN "mult8_2bits_1op_e16917"
*DATE "14:35:36 Friday September 19, 2025"
*VENDOR "The OpenROAD Project"
*PROGRAM "OpenROAD"
*VERSION "edf00dff99f6c40d67a30c0e22a8191c5d2ed9d6"
*DESIGN_FLOW "NAME_SCOPE LOCAL" "PIN_CAP NONE"
*DIVIDER /
*DELIMITER :
*BUS_DELIMITER []
*T_UNIT 1 NS
*C_UNIT 1 PF
*R_UNIT 1 OHM
*L_UNIT 1 HENRY

*NAME_MAP
*1 A[0]
*2 A[1]
*3 A[2]
*4 A[3]
*5 A[4]
*6 A[5]
*7 A[6]
*8 A[7]
*9 B[0]
*10 B[1]
*11 B[2]
*12 B[3]
*13 B[4]
*14 B[5]
*15 B[6]
*16 B[7]
*17 P[0]
*18 P[10]
*19 P[11]
*20 P[12]
*21 P[13]
*22 P[14]
*23 P[15]
*24 P[1]
*25 P[2]
*26 P[3]
*27 P[4]
*28 P[5]
*29 P[6]
*30 P[7]
*31 P[8]
*32 P[9]
*35 _000_
*36 _001_
*37 _002_
*38 _003_
*39 _004_
*40 _005_
*41 _006_
*42 _007_
*43 _008_
*44 _009_
*45 _010_
*46 _011_
*47 _012_
*48 _013_
*49 _014_
*50 _015_
*51 _016_
*52 _017_
*53 _018_
*54 _019_
*55 _020_
*56 _021_
*57 _022_
*58 _023_
*59 _024_
*60 _025_
*61 _026_
*62 _027_
*63 _028_
*64 _029_
*65 _030_
*66 _031_
*67 _032_
*68 _033_
*69 _034_
*70 _035_
*71 _036_
*72 _037_
*73 _038_
*74 _039_
*75 _040_
*76 _041_
*77 _042_
*78 _043_
*79 _044_
*80 _045_
*81 _046_
*82 _047_
*83 _048_
*84 _049_
*85 _050_
*86 _051_
*87 _052_
*88 _053_
*89 _054_
*90 _055_
*91 _056_
*92 _057_
*93 _058_
*94 _059_
*95 _060_
*96 _061_
*97 _062_
*98 _063_
*99 _064_
*100 _065_
*101 _066_
*102 _067_
*103 _068_
*104 _069_
*105 _070_
*106 _071_
*107 _072_
*108 _073_
*109 _074_
*110 _075_
*111 _076_
*112 _077_
*113 _078_
*114 _079_
*115 _080_
*116 _081_
*117 _082_
*118 _083_
*119 _084_
*120 _085_
*121 _086_
*122 _087_
*123 _088_
*124 _089_
*125 _090_
*126 _091_
*127 _092_
*128 _093_
*129 _094_
*130 _095_
*131 _096_
*132 _097_
*133 _098_
*134 _099_
*135 _100_
*136 _101_
*137 _102_
*138 _103_
*139 _104_
*140 _105_
*141 _106_
*142 _107_
*143 _108_
*144 _109_
*145 _110_
*146 _111_
*147 _112_
*148 _113_
*149 _114_
*150 _115_
*151 _116_
*152 _117_
*153 _118_
*154 _119_
*155 _120_
*156 _121_
*157 _122_
*158 _123_
*159 _124_
*160 _125_
*161 _126_
*162 _127_
*163 _128_
*164 _129_
*165 _130_
*166 _131_
*167 _132_
*168 _133_
*169 _134_
*170 _135_
*171 _136_
*172 _137_
*173 _138_
*174 _139_
*175 _140_
*176 _141_
*177 _142_
*178 _143_
*179 _144_
*180 _145_
*181 _146_
*182 _147_
*183 _148_
*184 _149_
*185 _150_
*186 _151_
*187 _152_
*188 _153_
*189 _154_
*190 _155_
*191 _156_
*192 _157_
*193 _158_
*194 _159_
*195 _160_
*196 _161_
*197 _162_
*198 _163_
*199 _164_
*200 _165_
*201 _166_
*202 _167_
*203 _168_
*204 _169_
*205 _170_
*206 _171_
*207 _172_
*208 _173_
*209 _174_
*210 _175_
*211 _176_
*212 _177_
*213 _178_
*214 _179_
*215 _180_
*216 _181_
*217 _182_
*218 _183_
*219 _184_
*220 _185_
*221 _186_
*222 _187_
*223 _188_
*224 _189_
*225 _190_
*226 _191_
*227 _192_
*228 _193_
*229 _194_
*230 _195_
*231 _196_
*232 _197_
*233 _198_
*234 _199_
*235 _200_
*236 _201_
*237 _202_
*238 _203_
*239 _204_
*240 _205_
*241 _206_
*242 _207_
*243 _208_
*244 _209_
*245 _210_
*246 _211_
*247 _212_
*248 _213_
*249 _214_
*250 _215_
*251 _216_
*252 _217_
*253 _218_
*254 _219_
*255 _220_
*256 _221_
*257 _222_
*258 _223_
*259 _224_
*260 _225_
*261 _226_
*262 _227_
*263 _228_
*264 _229_
*265 _230_
*266 _231_
*267 _232_
*268 _233_
*269 _234_
*270 _235_
*271 _236_
*272 _237_
*273 _238_
*274 _239_
*275 _240_
*276 _241_
*277 _242_
*278 _243_
*279 _244_
*280 _245_
*281 _246_
*282 _247_
*283 _248_
*284 _249_
*285 _250_
*286 _251_
*287 _252_
*288 _253_
*289 _254_
*290 _255_
*291 _256_
*292 _257_
*293 _258_
*294 _259_
*295 _260_
*296 _261_
*297 _262_
*298 _263_
*299 _264_
*300 _265_
*301 _266_
*302 _267_
*303 _268_
*304 _269_
*305 _270_
*306 _271_
*307 _272_
*308 _273_
*309 _274_
*310 _275_
*311 _276_
*312 _277_
*313 _278_
*314 _279_
*315 _280_
*316 _281_
*317 _282_
*318 _283_
*319 _284_
*320 _285_
*321 _286_
*322 _287_
*323 _288_
*324 _289_
*325 _290_
*326 _291_
*327 _292_
*328 _293_
*329 _294_
*330 _295_
*331 _296_
*332 _297_
*333 _298_
*334 _299_
*335 _300_
*336 _301_
*337 _302_
*338 _303_
*339 _304_
*340 _305_
*341 _306_
*342 mul_ll\.mul_ll\.pp0
*343 net1
*344 net10
*345 net11
*346 net12
*347 net13
*348 net14
*349 net15
*350 net16
*351 net17
*352 net18
*353 net19
*354 net2
*355 net20
*356 net21
*357 net22
*358 net23
*359 net24
*360 net25
*361 net26
*362 net27
*363 net28
*364 net29
*365 net3
*366 net30
*367 net31
*368 net32
*369 net33
*370 net34
*371 net35
*372 net36
*373 net37
*374 net38
*375 net39
*376 net4
*377 net40
*378 net41
*379 net42
*380 net43
*381 net44
*382 net45
*383 net46
*384 net47
*385 net48
*386 net49
*387 net5
*388 net50
*389 net51
*390 net52
*391 net53
*392 net54
*393 net55
*394 net56
*395 net57
*396 net58
*397 net59
*398 net6
*399 net60
*400 net61
*401 net62
*402 net63
*403 net64
*404 net65
*405 net66
*406 net67
*407 net68
*408 net69
*409 net7
*410 net70
*411 net71
*412 net72
*413 net73
*414 net74
*415 net75
*416 net76
*417 net77
*418 net78
*419 net79
*420 net8
*421 net80
*422 net81
*423 net82
*424 net83
*425 net84
*426 net9
*427 FILLER_0_109
*428 FILLER_0_113
*429 FILLER_0_125
*430 FILLER_0_137
*431 FILLER_0_141
*432 FILLER_0_15
*433 FILLER_0_153
*434 FILLER_0_161
*435 FILLER_0_169
*436 FILLER_0_175
*437 FILLER_0_182
*438 FILLER_0_194
*439 FILLER_0_197
*440 FILLER_0_203
*441 FILLER_0_215
*442 FILLER_0_223
*443 FILLER_0_225
*444 FILLER_0_237
*445 FILLER_0_245
*446 FILLER_0_253
*447 FILLER_0_265
*448 FILLER_0_27
*449 FILLER_0_277
*450 FILLER_0_281
*451 FILLER_0_29
*452 FILLER_0_293
*453 FILLER_0_3
*454 FILLER_0_305
*455 FILLER_0_315
*456 FILLER_0_327
*457 FILLER_0_335
*458 FILLER_0_337
*459 FILLER_0_349
*460 FILLER_0_361
*461 FILLER_0_365
*462 FILLER_0_377
*463 FILLER_0_389
*464 FILLER_0_393
*465 FILLER_0_405
*466 FILLER_0_41
*467 FILLER_0_53
*468 FILLER_0_57
*469 FILLER_0_69
*470 FILLER_0_81
*471 FILLER_0_85
*472 FILLER_0_97
*473 FILLER_10_109
*474 FILLER_10_121
*475 FILLER_10_133
*476 FILLER_10_139
*477 FILLER_10_141
*478 FILLER_10_15
*479 FILLER_10_153
*480 FILLER_10_165
*481 FILLER_10_177
*482 FILLER_10_189
*483 FILLER_10_195
*484 FILLER_10_197
*485 FILLER_10_209
*486 FILLER_10_221
*487 FILLER_10_233
*488 FILLER_10_245
*489 FILLER_10_251
*490 FILLER_10_253
*491 FILLER_10_265
*492 FILLER_10_27
*493 FILLER_10_277
*494 FILLER_10_289
*495 FILLER_10_29
*496 FILLER_10_3
*497 FILLER_10_301
*498 FILLER_10_307
*499 FILLER_10_309
*500 FILLER_10_321
*501 FILLER_10_333
*502 FILLER_10_345
*503 FILLER_10_357
*504 FILLER_10_363
*505 FILLER_10_365
*506 FILLER_10_377
*507 FILLER_10_389
*508 FILLER_10_401
*509 FILLER_10_41
*510 FILLER_10_53
*511 FILLER_10_65
*512 FILLER_10_77
*513 FILLER_10_83
*514 FILLER_10_85
*515 FILLER_10_97
*516 FILLER_11_105
*517 FILLER_11_111
*518 FILLER_11_113
*519 FILLER_11_125
*520 FILLER_11_137
*521 FILLER_11_149
*522 FILLER_11_15
*523 FILLER_11_161
*524 FILLER_11_167
*525 FILLER_11_169
*526 FILLER_11_181
*527 FILLER_11_193
*528 FILLER_11_205
*529 FILLER_11_217
*530 FILLER_11_223
*531 FILLER_11_225
*532 FILLER_11_237
*533 FILLER_11_249
*534 FILLER_11_261
*535 FILLER_11_27
*536 FILLER_11_273
*537 FILLER_11_279
*538 FILLER_11_281
*539 FILLER_11_293
*540 FILLER_11_3
*541 FILLER_11_305
*542 FILLER_11_317
*543 FILLER_11_329
*544 FILLER_11_335
*545 FILLER_11_337
*546 FILLER_11_349
*547 FILLER_11_361
*548 FILLER_11_373
*549 FILLER_11_385
*550 FILLER_11_39
*551 FILLER_11_391
*552 FILLER_11_393
*553 FILLER_11_405
*554 FILLER_11_51
*555 FILLER_11_55
*556 FILLER_11_57
*557 FILLER_11_69
*558 FILLER_11_81
*559 FILLER_11_93
*560 FILLER_12_109
*561 FILLER_12_121
*562 FILLER_12_133
*563 FILLER_12_139
*564 FILLER_12_141
*565 FILLER_12_15
*566 FILLER_12_153
*567 FILLER_12_165
*568 FILLER_12_177
*569 FILLER_12_189
*570 FILLER_12_195
*571 FILLER_12_197
*572 FILLER_12_209
*573 FILLER_12_221
*574 FILLER_12_233
*575 FILLER_12_245
*576 FILLER_12_251
*577 FILLER_12_253
*578 FILLER_12_265
*579 FILLER_12_27
*580 FILLER_12_277
*581 FILLER_12_289
*582 FILLER_12_29
*583 FILLER_12_3
*584 FILLER_12_301
*585 FILLER_12_307
*586 FILLER_12_309
*587 FILLER_12_321
*588 FILLER_12_333
*589 FILLER_12_345
*590 FILLER_12_357
*591 FILLER_12_363
*592 FILLER_12_365
*593 FILLER_12_377
*594 FILLER_12_389
*595 FILLER_12_401
*596 FILLER_12_41
*597 FILLER_12_53
*598 FILLER_12_65
*599 FILLER_12_77
*600 FILLER_12_83
*601 FILLER_12_85
*602 FILLER_12_97
*603 FILLER_13_105
*604 FILLER_13_111
*605 FILLER_13_113
*606 FILLER_13_125
*607 FILLER_13_137
*608 FILLER_13_149
*609 FILLER_13_15
*610 FILLER_13_161
*611 FILLER_13_167
*612 FILLER_13_169
*613 FILLER_13_181
*614 FILLER_13_193
*615 FILLER_13_205
*616 FILLER_13_217
*617 FILLER_13_223
*618 FILLER_13_225
*619 FILLER_13_237
*620 FILLER_13_249
*621 FILLER_13_261
*622 FILLER_13_27
*623 FILLER_13_273
*624 FILLER_13_279
*625 FILLER_13_281
*626 FILLER_13_293
*627 FILLER_13_3
*628 FILLER_13_305
*629 FILLER_13_317
*630 FILLER_13_329
*631 FILLER_13_335
*632 FILLER_13_337
*633 FILLER_13_349
*634 FILLER_13_361
*635 FILLER_13_373
*636 FILLER_13_385
*637 FILLER_13_39
*638 FILLER_13_391
*639 FILLER_13_393
*640 FILLER_13_405
*641 FILLER_13_51
*642 FILLER_13_55
*643 FILLER_13_57
*644 FILLER_13_69
*645 FILLER_13_81
*646 FILLER_13_93
*647 FILLER_14_109
*648 FILLER_14_121
*649 FILLER_14_133
*650 FILLER_14_139
*651 FILLER_14_141
*652 FILLER_14_15
*653 FILLER_14_153
*654 FILLER_14_161
*655 FILLER_14_173
*656 FILLER_14_185
*657 FILLER_14_193
*658 FILLER_14_197
*659 FILLER_14_209
*660 FILLER_14_221
*661 FILLER_14_233
*662 FILLER_14_245
*663 FILLER_14_251
*664 FILLER_14_253
*665 FILLER_14_265
*666 FILLER_14_27
*667 FILLER_14_277
*668 FILLER_14_289
*669 FILLER_14_29
*670 FILLER_14_3
*671 FILLER_14_301
*672 FILLER_14_307
*673 FILLER_14_309
*674 FILLER_14_321
*675 FILLER_14_333
*676 FILLER_14_345
*677 FILLER_14_357
*678 FILLER_14_363
*679 FILLER_14_365
*680 FILLER_14_377
*681 FILLER_14_389
*682 FILLER_14_401
*683 FILLER_14_41
*684 FILLER_14_53
*685 FILLER_14_65
*686 FILLER_14_77
*687 FILLER_14_83
*688 FILLER_14_85
*689 FILLER_14_97
*690 FILLER_15_105
*691 FILLER_15_111
*692 FILLER_15_113
*693 FILLER_15_125
*694 FILLER_15_137
*695 FILLER_15_149
*696 FILLER_15_15
*697 FILLER_15_161
*698 FILLER_15_169
*699 FILLER_15_181
*700 FILLER_15_189
*701 FILLER_15_199
*702 FILLER_15_211
*703 FILLER_15_223
*704 FILLER_15_225
*705 FILLER_15_237
*706 FILLER_15_249
*707 FILLER_15_261
*708 FILLER_15_27
*709 FILLER_15_273
*710 FILLER_15_279
*711 FILLER_15_281
*712 FILLER_15_293
*713 FILLER_15_3
*714 FILLER_15_305
*715 FILLER_15_317
*716 FILLER_15_329
*717 FILLER_15_335
*718 FILLER_15_337
*719 FILLER_15_349
*720 FILLER_15_361
*721 FILLER_15_373
*722 FILLER_15_385
*723 FILLER_15_39
*724 FILLER_15_391
*725 FILLER_15_393
*726 FILLER_15_405
*727 FILLER_15_51
*728 FILLER_15_55
*729 FILLER_15_57
*730 FILLER_15_69
*731 FILLER_15_81
*732 FILLER_15_93
*733 FILLER_16_109
*734 FILLER_16_121
*735 FILLER_16_133
*736 FILLER_16_139
*737 FILLER_16_141
*738 FILLER_16_15
*739 FILLER_16_150
*740 FILLER_16_156
*741 FILLER_16_164
*742 FILLER_16_176
*743 FILLER_16_188
*744 FILLER_16_197
*745 FILLER_16_210
*746 FILLER_16_222
*747 FILLER_16_234
*748 FILLER_16_246
*749 FILLER_16_253
*750 FILLER_16_265
*751 FILLER_16_27
*752 FILLER_16_277
*753 FILLER_16_289
*754 FILLER_16_29
*755 FILLER_16_3
*756 FILLER_16_301
*757 FILLER_16_307
*758 FILLER_16_309
*759 FILLER_16_321
*760 FILLER_16_333
*761 FILLER_16_345
*762 FILLER_16_357
*763 FILLER_16_363
*764 FILLER_16_365
*765 FILLER_16_377
*766 FILLER_16_389
*767 FILLER_16_401
*768 FILLER_16_41
*769 FILLER_16_53
*770 FILLER_16_65
*771 FILLER_16_77
*772 FILLER_16_83
*773 FILLER_16_85
*774 FILLER_16_97
*775 FILLER_17_105
*776 FILLER_17_111
*777 FILLER_17_113
*778 FILLER_17_133
*779 FILLER_17_141
*780 FILLER_17_149
*781 FILLER_17_15
*782 FILLER_17_157
*783 FILLER_17_166
*784 FILLER_17_169
*785 FILLER_17_181
*786 FILLER_17_193
*787 FILLER_17_207
*788 FILLER_17_219
*789 FILLER_17_223
*790 FILLER_17_225
*791 FILLER_17_237
*792 FILLER_17_249
*793 FILLER_17_261
*794 FILLER_17_27
*795 FILLER_17_273
*796 FILLER_17_279
*797 FILLER_17_281
*798 FILLER_17_293
*799 FILLER_17_3
*800 FILLER_17_305
*801 FILLER_17_317
*802 FILLER_17_329
*803 FILLER_17_335
*804 FILLER_17_337
*805 FILLER_17_349
*806 FILLER_17_361
*807 FILLER_17_373
*808 FILLER_17_385
*809 FILLER_17_39
*810 FILLER_17_391
*811 FILLER_17_393
*812 FILLER_17_405
*813 FILLER_17_51
*814 FILLER_17_55
*815 FILLER_17_57
*816 FILLER_17_69
*817 FILLER_17_81
*818 FILLER_17_93
*819 FILLER_18_107
*820 FILLER_18_115
*821 FILLER_18_127
*822 FILLER_18_139
*823 FILLER_18_141
*824 FILLER_18_147
*825 FILLER_18_15
*826 FILLER_18_154
*827 FILLER_18_166
*828 FILLER_18_178
*829 FILLER_18_190
*830 FILLER_18_197
*831 FILLER_18_209
*832 FILLER_18_221
*833 FILLER_18_233
*834 FILLER_18_242
*835 FILLER_18_250
*836 FILLER_18_253
*837 FILLER_18_265
*838 FILLER_18_27
*839 FILLER_18_277
*840 FILLER_18_289
*841 FILLER_18_29
*842 FILLER_18_3
*843 FILLER_18_301
*844 FILLER_18_307
*845 FILLER_18_309
*846 FILLER_18_321
*847 FILLER_18_333
*848 FILLER_18_345
*849 FILLER_18_357
*850 FILLER_18_363
*851 FILLER_18_365
*852 FILLER_18_377
*853 FILLER_18_389
*854 FILLER_18_401
*855 FILLER_18_41
*856 FILLER_18_53
*857 FILLER_18_65
*858 FILLER_18_77
*859 FILLER_18_83
*860 FILLER_18_85
*861 FILLER_18_95
*862 FILLER_19_108
*863 FILLER_19_113
*864 FILLER_19_131
*865 FILLER_19_143
*866 FILLER_19_149
*867 FILLER_19_15
*868 FILLER_19_157
*869 FILLER_19_175
*870 FILLER_19_187
*871 FILLER_19_199
*872 FILLER_19_211
*873 FILLER_19_223
*874 FILLER_19_225
*875 FILLER_19_237
*876 FILLER_19_249
*877 FILLER_19_261
*878 FILLER_19_27
*879 FILLER_19_273
*880 FILLER_19_279
*881 FILLER_19_281
*882 FILLER_19_293
*883 FILLER_19_3
*884 FILLER_19_305
*885 FILLER_19_317
*886 FILLER_19_329
*887 FILLER_19_335
*888 FILLER_19_337
*889 FILLER_19_349
*890 FILLER_19_361
*891 FILLER_19_373
*892 FILLER_19_385
*893 FILLER_19_39
*894 FILLER_19_391
*895 FILLER_19_393
*896 FILLER_19_405
*897 FILLER_19_51
*898 FILLER_19_55
*899 FILLER_19_57
*900 FILLER_1_105
*901 FILLER_1_111
*902 FILLER_1_113
*903 FILLER_1_125
*904 FILLER_1_137
*905 FILLER_1_149
*906 FILLER_1_15
*907 FILLER_1_161
*908 FILLER_1_167
*909 FILLER_1_169
*910 FILLER_1_181
*911 FILLER_1_193
*912 FILLER_1_205
*913 FILLER_1_217
*914 FILLER_1_223
*915 FILLER_1_225
*916 FILLER_1_237
*917 FILLER_1_249
*918 FILLER_1_261
*919 FILLER_1_27
*920 FILLER_1_273
*921 FILLER_1_279
*922 FILLER_1_281
*923 FILLER_1_293
*924 FILLER_1_3
*925 FILLER_1_305
*926 FILLER_1_317
*927 FILLER_1_329
*928 FILLER_1_335
*929 FILLER_1_337
*930 FILLER_1_349
*931 FILLER_1_361
*932 FILLER_1_373
*933 FILLER_1_385
*934 FILLER_1_39
*935 FILLER_1_391
*936 FILLER_1_393
*937 FILLER_1_405
*938 FILLER_1_51
*939 FILLER_1_55
*940 FILLER_1_57
*941 FILLER_1_69
*942 FILLER_1_81
*943 FILLER_1_93
*944 FILLER_20_101
*945 FILLER_20_113
*946 FILLER_20_125
*947 FILLER_20_137
*948 FILLER_20_141
*949 FILLER_20_15
*950 FILLER_20_153
*951 FILLER_20_159
*952 FILLER_20_180
*953 FILLER_20_192
*954 FILLER_20_204
*955 FILLER_20_216
*956 FILLER_20_228
*957 FILLER_20_236
*958 FILLER_20_250
*959 FILLER_20_253
*960 FILLER_20_265
*961 FILLER_20_27
*962 FILLER_20_277
*963 FILLER_20_289
*964 FILLER_20_29
*965 FILLER_20_3
*966 FILLER_20_301
*967 FILLER_20_307
*968 FILLER_20_309
*969 FILLER_20_321
*970 FILLER_20_333
*971 FILLER_20_345
*972 FILLER_20_357
*973 FILLER_20_363
*974 FILLER_20_365
*975 FILLER_20_377
*976 FILLER_20_389
*977 FILLER_20_401
*978 FILLER_20_41
*979 FILLER_20_49
*980 FILLER_20_85
*981 FILLER_21_110
*982 FILLER_21_113
*983 FILLER_21_125
*984 FILLER_21_137
*985 FILLER_21_149
*986 FILLER_21_15
*987 FILLER_21_161
*988 FILLER_21_167
*989 FILLER_21_169
*990 FILLER_21_177
*991 FILLER_21_183
*992 FILLER_21_201
*993 FILLER_21_213
*994 FILLER_21_221
*995 FILLER_21_225
*996 FILLER_21_241
*997 FILLER_21_253
*998 FILLER_21_265
*999 FILLER_21_27
*1000 FILLER_21_277
*1001 FILLER_21_281
*1002 FILLER_21_293
*1003 FILLER_21_3
*1004 FILLER_21_305
*1005 FILLER_21_317
*1006 FILLER_21_329
*1007 FILLER_21_335
*1008 FILLER_21_337
*1009 FILLER_21_349
*1010 FILLER_21_361
*1011 FILLER_21_373
*1012 FILLER_21_385
*1013 FILLER_21_39
*1014 FILLER_21_391
*1015 FILLER_21_393
*1016 FILLER_21_405
*1017 FILLER_21_51
*1018 FILLER_21_55
*1019 FILLER_21_80
*1020 FILLER_22_108
*1021 FILLER_22_120
*1022 FILLER_22_132
*1023 FILLER_22_141
*1024 FILLER_22_15
*1025 FILLER_22_153
*1026 FILLER_22_165
*1027 FILLER_22_177
*1028 FILLER_22_184
*1029 FILLER_22_197
*1030 FILLER_22_209
*1031 FILLER_22_221
*1032 FILLER_22_233
*1033 FILLER_22_245
*1034 FILLER_22_251
*1035 FILLER_22_253
*1036 FILLER_22_265
*1037 FILLER_22_27
*1038 FILLER_22_277
*1039 FILLER_22_289
*1040 FILLER_22_29
*1041 FILLER_22_3
*1042 FILLER_22_301
*1043 FILLER_22_307
*1044 FILLER_22_309
*1045 FILLER_22_321
*1046 FILLER_22_333
*1047 FILLER_22_345
*1048 FILLER_22_357
*1049 FILLER_22_363
*1050 FILLER_22_365
*1051 FILLER_22_377
*1052 FILLER_22_389
*1053 FILLER_22_401
*1054 FILLER_22_41
*1055 FILLER_22_60
*1056 FILLER_22_72
*1057 FILLER_22_85
*1058 FILLER_23_105
*1059 FILLER_23_111
*1060 FILLER_23_113
*1061 FILLER_23_123
*1062 FILLER_23_135
*1063 FILLER_23_15
*1064 FILLER_23_153
*1065 FILLER_23_165
*1066 FILLER_23_169
*1067 FILLER_23_181
*1068 FILLER_23_187
*1069 FILLER_23_195
*1070 FILLER_23_207
*1071 FILLER_23_219
*1072 FILLER_23_223
*1073 FILLER_23_225
*1074 FILLER_23_237
*1075 FILLER_23_249
*1076 FILLER_23_261
*1077 FILLER_23_27
*1078 FILLER_23_273
*1079 FILLER_23_279
*1080 FILLER_23_281
*1081 FILLER_23_293
*1082 FILLER_23_3
*1083 FILLER_23_305
*1084 FILLER_23_317
*1085 FILLER_23_329
*1086 FILLER_23_335
*1087 FILLER_23_337
*1088 FILLER_23_349
*1089 FILLER_23_361
*1090 FILLER_23_373
*1091 FILLER_23_385
*1092 FILLER_23_39
*1093 FILLER_23_391
*1094 FILLER_23_393
*1095 FILLER_23_405
*1096 FILLER_23_49
*1097 FILLER_23_55
*1098 FILLER_23_57
*1099 FILLER_23_69
*1100 FILLER_23_81
*1101 FILLER_23_93
*1102 FILLER_24_109
*1103 FILLER_24_121
*1104 FILLER_24_133
*1105 FILLER_24_139
*1106 FILLER_24_141
*1107 FILLER_24_15
*1108 FILLER_24_153
*1109 FILLER_24_165
*1110 FILLER_24_177
*1111 FILLER_24_189
*1112 FILLER_24_195
*1113 FILLER_24_197
*1114 FILLER_24_206
*1115 FILLER_24_218
*1116 FILLER_24_230
*1117 FILLER_24_241
*1118 FILLER_24_249
*1119 FILLER_24_253
*1120 FILLER_24_265
*1121 FILLER_24_27
*1122 FILLER_24_277
*1123 FILLER_24_29
*1124 FILLER_24_290
*1125 FILLER_24_3
*1126 FILLER_24_302
*1127 FILLER_24_309
*1128 FILLER_24_321
*1129 FILLER_24_333
*1130 FILLER_24_345
*1131 FILLER_24_357
*1132 FILLER_24_363
*1133 FILLER_24_365
*1134 FILLER_24_377
*1135 FILLER_24_389
*1136 FILLER_24_401
*1137 FILLER_24_41
*1138 FILLER_24_52
*1139 FILLER_24_64
*1140 FILLER_24_76
*1141 FILLER_24_85
*1142 FILLER_24_97
*1143 FILLER_25_102
*1144 FILLER_25_110
*1145 FILLER_25_120
*1146 FILLER_25_128
*1147 FILLER_25_140
*1148 FILLER_25_15
*1149 FILLER_25_152
*1150 FILLER_25_164
*1151 FILLER_25_169
*1152 FILLER_25_181
*1153 FILLER_25_189
*1154 FILLER_25_19
*1155 FILLER_25_193
*1156 FILLER_25_205
*1157 FILLER_25_217
*1158 FILLER_25_223
*1159 FILLER_25_225
*1160 FILLER_25_231
*1161 FILLER_25_250
*1162 FILLER_25_262
*1163 FILLER_25_269
*1164 FILLER_25_277
*1165 FILLER_25_281
*1166 FILLER_25_298
*1167 FILLER_25_30
*1168 FILLER_25_310
*1169 FILLER_25_322
*1170 FILLER_25_334
*1171 FILLER_25_337
*1172 FILLER_25_349
*1173 FILLER_25_361
*1174 FILLER_25_373
*1175 FILLER_25_385
*1176 FILLER_25_391
*1177 FILLER_25_393
*1178 FILLER_25_405
*1179 FILLER_25_42
*1180 FILLER_25_54
*1181 FILLER_25_60
*1182 FILLER_25_7
*1183 FILLER_25_72
*1184 FILLER_25_84
*1185 FILLER_25_90
*1186 FILLER_26_109
*1187 FILLER_26_113
*1188 FILLER_26_125
*1189 FILLER_26_137
*1190 FILLER_26_141
*1191 FILLER_26_161
*1192 FILLER_26_173
*1193 FILLER_26_185
*1194 FILLER_26_193
*1195 FILLER_26_197
*1196 FILLER_26_209
*1197 FILLER_26_221
*1198 FILLER_26_233
*1199 FILLER_26_245
*1200 FILLER_26_251
*1201 FILLER_26_253
*1202 FILLER_26_265
*1203 FILLER_26_27
*1204 FILLER_26_272
*1205 FILLER_26_286
*1206 FILLER_26_298
*1207 FILLER_26_3
*1208 FILLER_26_306
*1209 FILLER_26_309
*1210 FILLER_26_321
*1211 FILLER_26_333
*1212 FILLER_26_345
*1213 FILLER_26_357
*1214 FILLER_26_363
*1215 FILLER_26_365
*1216 FILLER_26_377
*1217 FILLER_26_389
*1218 FILLER_26_401
*1219 FILLER_26_53
*1220 FILLER_26_65
*1221 FILLER_26_77
*1222 FILLER_26_83
*1223 FILLER_26_98
*1224 FILLER_27_110
*1225 FILLER_27_117
*1226 FILLER_27_129
*1227 FILLER_27_141
*1228 FILLER_27_153
*1229 FILLER_27_161
*1230 FILLER_27_173
*1231 FILLER_27_185
*1232 FILLER_27_193
*1233 FILLER_27_199
*1234 FILLER_27_211
*1235 FILLER_27_223
*1236 FILLER_27_225
*1237 FILLER_27_237
*1238 FILLER_27_249
*1239 FILLER_27_261
*1240 FILLER_27_273
*1241 FILLER_27_279
*1242 FILLER_27_281
*1243 FILLER_27_293
*1244 FILLER_27_305
*1245 FILLER_27_317
*1246 FILLER_27_329
*1247 FILLER_27_335
*1248 FILLER_27_337
*1249 FILLER_27_349
*1250 FILLER_27_361
*1251 FILLER_27_373
*1252 FILLER_27_385
*1253 FILLER_27_391
*1254 FILLER_27_393
*1255 FILLER_27_405
*1256 FILLER_27_53
*1257 FILLER_27_57
*1258 FILLER_27_69
*1259 FILLER_27_87
*1260 FILLER_27_9
*1261 FILLER_27_99
*1262 FILLER_28_11
*1263 FILLER_28_118
*1264 FILLER_28_130
*1265 FILLER_28_138
*1266 FILLER_28_141
*1267 FILLER_28_153
*1268 FILLER_28_182
*1269 FILLER_28_186
*1270 FILLER_28_190
*1271 FILLER_28_197
*1272 FILLER_28_203
*1273 FILLER_28_216
*1274 FILLER_28_222
*1275 FILLER_28_226
*1276 FILLER_28_238
*1277 FILLER_28_250
*1278 FILLER_28_253
*1279 FILLER_28_265
*1280 FILLER_28_277
*1281 FILLER_28_289
*1282 FILLER_28_297
*1283 FILLER_28_3
*1284 FILLER_28_303
*1285 FILLER_28_307
*1286 FILLER_28_309
*1287 FILLER_28_321
*1288 FILLER_28_333
*1289 FILLER_28_345
*1290 FILLER_28_357
*1291 FILLER_28_363
*1292 FILLER_28_365
*1293 FILLER_28_377
*1294 FILLER_28_389
*1295 FILLER_28_39
*1296 FILLER_28_401
*1297 FILLER_28_67
*1298 FILLER_28_79
*1299 FILLER_28_83
*1300 FILLER_28_85
*1301 FILLER_29_101
*1302 FILLER_29_107
*1303 FILLER_29_111
*1304 FILLER_29_113
*1305 FILLER_29_125
*1306 FILLER_29_137
*1307 FILLER_29_149
*1308 FILLER_29_161
*1309 FILLER_29_167
*1310 FILLER_29_169
*1311 FILLER_29_181
*1312 FILLER_29_19
*1313 FILLER_29_193
*1314 FILLER_29_201
*1315 FILLER_29_209
*1316 FILLER_29_213
*1317 FILLER_29_221
*1318 FILLER_29_225
*1319 FILLER_29_237
*1320 FILLER_29_249
*1321 FILLER_29_261
*1322 FILLER_29_273
*1323 FILLER_29_279
*1324 FILLER_29_281
*1325 FILLER_29_293
*1326 FILLER_29_305
*1327 FILLER_29_31
*1328 FILLER_29_313
*1329 FILLER_29_327
*1330 FILLER_29_335
*1331 FILLER_29_337
*1332 FILLER_29_349
*1333 FILLER_29_361
*1334 FILLER_29_373
*1335 FILLER_29_385
*1336 FILLER_29_391
*1337 FILLER_29_393
*1338 FILLER_29_397
*1339 FILLER_29_46
*1340 FILLER_29_54
*1341 FILLER_29_57
*1342 FILLER_29_69
*1343 FILLER_29_7
*1344 FILLER_29_81
*1345 FILLER_29_93
*1346 FILLER_2_109
*1347 FILLER_2_121
*1348 FILLER_2_133
*1349 FILLER_2_139
*1350 FILLER_2_141
*1351 FILLER_2_15
*1352 FILLER_2_153
*1353 FILLER_2_165
*1354 FILLER_2_177
*1355 FILLER_2_189
*1356 FILLER_2_195
*1357 FILLER_2_197
*1358 FILLER_2_209
*1359 FILLER_2_221
*1360 FILLER_2_233
*1361 FILLER_2_245
*1362 FILLER_2_251
*1363 FILLER_2_253
*1364 FILLER_2_265
*1365 FILLER_2_27
*1366 FILLER_2_277
*1367 FILLER_2_289
*1368 FILLER_2_29
*1369 FILLER_2_3
*1370 FILLER_2_301
*1371 FILLER_2_307
*1372 FILLER_2_309
*1373 FILLER_2_321
*1374 FILLER_2_333
*1375 FILLER_2_345
*1376 FILLER_2_357
*1377 FILLER_2_363
*1378 FILLER_2_365
*1379 FILLER_2_377
*1380 FILLER_2_389
*1381 FILLER_2_401
*1382 FILLER_2_41
*1383 FILLER_2_53
*1384 FILLER_2_65
*1385 FILLER_2_77
*1386 FILLER_2_83
*1387 FILLER_2_85
*1388 FILLER_2_97
*1389 FILLER_30_109
*1390 FILLER_30_12
*1391 FILLER_30_121
*1392 FILLER_30_133
*1393 FILLER_30_139
*1394 FILLER_30_141
*1395 FILLER_30_153
*1396 FILLER_30_165
*1397 FILLER_30_177
*1398 FILLER_30_189
*1399 FILLER_30_195
*1400 FILLER_30_197
*1401 FILLER_30_209
*1402 FILLER_30_221
*1403 FILLER_30_231
*1404 FILLER_30_239
*1405 FILLER_30_24
*1406 FILLER_30_249
*1407 FILLER_30_253
*1408 FILLER_30_265
*1409 FILLER_30_277
*1410 FILLER_30_289
*1411 FILLER_30_29
*1412 FILLER_30_321
*1413 FILLER_30_333
*1414 FILLER_30_345
*1415 FILLER_30_357
*1416 FILLER_30_363
*1417 FILLER_30_365
*1418 FILLER_30_377
*1419 FILLER_30_389
*1420 FILLER_30_397
*1421 FILLER_30_41
*1422 FILLER_30_58
*1423 FILLER_30_70
*1424 FILLER_30_82
*1425 FILLER_30_85
*1426 FILLER_30_97
*1427 FILLER_31_109
*1428 FILLER_31_113
*1429 FILLER_31_125
*1430 FILLER_31_137
*1431 FILLER_31_149
*1432 FILLER_31_161
*1433 FILLER_31_167
*1434 FILLER_31_169
*1435 FILLER_31_181
*1436 FILLER_31_19
*1437 FILLER_31_193
*1438 FILLER_31_205
*1439 FILLER_31_217
*1440 FILLER_31_223
*1441 FILLER_31_225
*1442 FILLER_31_231
*1443 FILLER_31_243
*1444 FILLER_31_249
*1445 FILLER_31_255
*1446 FILLER_31_263
*1447 FILLER_31_272
*1448 FILLER_31_281
*1449 FILLER_31_293
*1450 FILLER_31_305
*1451 FILLER_31_31
*1452 FILLER_31_312
*1453 FILLER_31_324
*1454 FILLER_31_337
*1455 FILLER_31_349
*1456 FILLER_31_361
*1457 FILLER_31_373
*1458 FILLER_31_385
*1459 FILLER_31_391
*1460 FILLER_31_393
*1461 FILLER_31_43
*1462 FILLER_31_7
*1463 FILLER_31_73
*1464 FILLER_31_85
*1465 FILLER_31_97
*1466 FILLER_32_105
*1467 FILLER_32_117
*1468 FILLER_32_129
*1469 FILLER_32_137
*1470 FILLER_32_146
*1471 FILLER_32_158
*1472 FILLER_32_170
*1473 FILLER_32_178
*1474 FILLER_32_186
*1475 FILLER_32_19
*1476 FILLER_32_195
*1477 FILLER_32_200
*1478 FILLER_32_208
*1479 FILLER_32_214
*1480 FILLER_32_226
*1481 FILLER_32_238
*1482 FILLER_32_250
*1483 FILLER_32_253
*1484 FILLER_32_257
*1485 FILLER_32_268
*1486 FILLER_32_27
*1487 FILLER_32_274
*1488 FILLER_32_285
*1489 FILLER_32_292
*1490 FILLER_32_302
*1491 FILLER_32_309
*1492 FILLER_32_321
*1493 FILLER_32_333
*1494 FILLER_32_34
*1495 FILLER_32_345
*1496 FILLER_32_357
*1497 FILLER_32_363
*1498 FILLER_32_365
*1499 FILLER_32_377
*1500 FILLER_32_389
*1501 FILLER_32_40
*1502 FILLER_32_401
*1503 FILLER_32_58
*1504 FILLER_32_62
*1505 FILLER_32_7
*1506 FILLER_32_70
*1507 FILLER_32_82
*1508 FILLER_32_85
*1509 FILLER_32_94
*1510 FILLER_32_98
*1511 FILLER_33_113
*1512 FILLER_33_124
*1513 FILLER_33_132
*1514 FILLER_33_137
*1515 FILLER_33_149
*1516 FILLER_33_161
*1517 FILLER_33_167
*1518 FILLER_33_169
*1519 FILLER_33_175
*1520 FILLER_33_189
*1521 FILLER_33_193
*1522 FILLER_33_202
*1523 FILLER_33_214
*1524 FILLER_33_222
*1525 FILLER_33_225
*1526 FILLER_33_237
*1527 FILLER_33_249
*1528 FILLER_33_261
*1529 FILLER_33_273
*1530 FILLER_33_279
*1531 FILLER_33_281
*1532 FILLER_33_29
*1533 FILLER_33_295
*1534 FILLER_33_307
*1535 FILLER_33_319
*1536 FILLER_33_331
*1537 FILLER_33_335
*1538 FILLER_33_337
*1539 FILLER_33_349
*1540 FILLER_33_361
*1541 FILLER_33_373
*1542 FILLER_33_385
*1543 FILLER_33_391
*1544 FILLER_33_393
*1545 FILLER_33_405
*1546 FILLER_33_44
*1547 FILLER_33_57
*1548 FILLER_33_69
*1549 FILLER_33_81
*1550 FILLER_33_96
*1551 FILLER_34_116
*1552 FILLER_34_120
*1553 FILLER_34_126
*1554 FILLER_34_132
*1555 FILLER_34_14
*1556 FILLER_34_141
*1557 FILLER_34_145
*1558 FILLER_34_153
*1559 FILLER_34_165
*1560 FILLER_34_177
*1561 FILLER_34_189
*1562 FILLER_34_195
*1563 FILLER_34_197
*1564 FILLER_34_209
*1565 FILLER_34_221
*1566 FILLER_34_233
*1567 FILLER_34_244
*1568 FILLER_34_253
*1569 FILLER_34_260
*1570 FILLER_34_27
*1571 FILLER_34_272
*1572 FILLER_34_284
*1573 FILLER_34_296
*1574 FILLER_34_3
*1575 FILLER_34_309
*1576 FILLER_34_321
*1577 FILLER_34_333
*1578 FILLER_34_345
*1579 FILLER_34_357
*1580 FILLER_34_363
*1581 FILLER_34_365
*1582 FILLER_34_377
*1583 FILLER_34_389
*1584 FILLER_34_401
*1585 FILLER_34_43
*1586 FILLER_34_60
*1587 FILLER_34_72
*1588 FILLER_34_85
*1589 FILLER_34_89
*1590 FILLER_34_97
*1591 FILLER_35_105
*1592 FILLER_35_111
*1593 FILLER_35_113
*1594 FILLER_35_125
*1595 FILLER_35_137
*1596 FILLER_35_149
*1597 FILLER_35_161
*1598 FILLER_35_167
*1599 FILLER_35_169
*1600 FILLER_35_181
*1601 FILLER_35_189
*1602 FILLER_35_195
*1603 FILLER_35_207
*1604 FILLER_35_219
*1605 FILLER_35_223
*1606 FILLER_35_225
*1607 FILLER_35_250
*1608 FILLER_35_262
*1609 FILLER_35_274
*1610 FILLER_35_281
*1611 FILLER_35_293
*1612 FILLER_35_305
*1613 FILLER_35_317
*1614 FILLER_35_329
*1615 FILLER_35_335
*1616 FILLER_35_337
*1617 FILLER_35_349
*1618 FILLER_35_361
*1619 FILLER_35_373
*1620 FILLER_35_385
*1621 FILLER_35_391
*1622 FILLER_35_393
*1623 FILLER_35_405
*1624 FILLER_35_49
*1625 FILLER_35_55
*1626 FILLER_35_57
*1627 FILLER_35_69
*1628 FILLER_35_81
*1629 FILLER_35_93
*1630 FILLER_36_109
*1631 FILLER_36_11
*1632 FILLER_36_121
*1633 FILLER_36_133
*1634 FILLER_36_139
*1635 FILLER_36_141
*1636 FILLER_36_153
*1637 FILLER_36_165
*1638 FILLER_36_177
*1639 FILLER_36_189
*1640 FILLER_36_195
*1641 FILLER_36_197
*1642 FILLER_36_209
*1643 FILLER_36_221
*1644 FILLER_36_233
*1645 FILLER_36_245
*1646 FILLER_36_251
*1647 FILLER_36_26
*1648 FILLER_36_267
*1649 FILLER_36_279
*1650 FILLER_36_291
*1651 FILLER_36_303
*1652 FILLER_36_307
*1653 FILLER_36_309
*1654 FILLER_36_32
*1655 FILLER_36_321
*1656 FILLER_36_333
*1657 FILLER_36_345
*1658 FILLER_36_357
*1659 FILLER_36_363
*1660 FILLER_36_365
*1661 FILLER_36_377
*1662 FILLER_36_389
*1663 FILLER_36_401
*1664 FILLER_36_44
*1665 FILLER_36_56
*1666 FILLER_36_68
*1667 FILLER_36_7
*1668 FILLER_36_80
*1669 FILLER_36_85
*1670 FILLER_36_97
*1671 FILLER_37_101
*1672 FILLER_37_110
*1673 FILLER_37_113
*1674 FILLER_37_124
*1675 FILLER_37_136
*1676 FILLER_37_14
*1677 FILLER_37_148
*1678 FILLER_37_160
*1679 FILLER_37_169
*1680 FILLER_37_188
*1681 FILLER_37_203
*1682 FILLER_37_22
*1683 FILLER_37_220
*1684 FILLER_37_236
*1685 FILLER_37_248
*1686 FILLER_37_260
*1687 FILLER_37_272
*1688 FILLER_37_281
*1689 FILLER_37_293
*1690 FILLER_37_305
*1691 FILLER_37_317
*1692 FILLER_37_329
*1693 FILLER_37_335
*1694 FILLER_37_337
*1695 FILLER_37_34
*1696 FILLER_37_349
*1697 FILLER_37_361
*1698 FILLER_37_373
*1699 FILLER_37_385
*1700 FILLER_37_391
*1701 FILLER_37_393
*1702 FILLER_37_405
*1703 FILLER_37_46
*1704 FILLER_37_54
*1705 FILLER_37_57
*1706 FILLER_37_6
*1707 FILLER_37_69
*1708 FILLER_37_81
*1709 FILLER_37_93
*1710 FILLER_38_109
*1711 FILLER_38_116
*1712 FILLER_38_120
*1713 FILLER_38_124
*1714 FILLER_38_136
*1715 FILLER_38_141
*1716 FILLER_38_15
*1717 FILLER_38_153
*1718 FILLER_38_165
*1719 FILLER_38_177
*1720 FILLER_38_186
*1721 FILLER_38_193
*1722 FILLER_38_205
*1723 FILLER_38_217
*1724 FILLER_38_229
*1725 FILLER_38_241
*1726 FILLER_38_249
*1727 FILLER_38_253
*1728 FILLER_38_265
*1729 FILLER_38_27
*1730 FILLER_38_277
*1731 FILLER_38_285
*1732 FILLER_38_29