*SPEF "ieee 1481-1999"
*DESIGN "mult8_2bits_1op_e17306"
*DATE "14:59:39 Tuesday September 16, 2025"
*VENDOR "The OpenROAD Project"
*PROGRAM "OpenROAD"
*VERSION "edf00dff99f6c40d67a30c0e22a8191c5d2ed9d6"
*DESIGN_FLOW "NAME_SCOPE LOCAL" "PIN_CAP NONE"
*DIVIDER /
*DELIMITER :
*BUS_DELIMITER []
*T_UNIT 1 NS
*C_UNIT 1 PF
*R_UNIT 1 OHM
*L_UNIT 1 HENRY

*NAME_MAP
*1 A[0]
*2 A[1]
*3 A[2]
*4 A[3]
*5 A[4]
*6 A[5]
*7 A[6]
*8 A[7]
*9 B[0]
*10 B[1]
*11 B[2]
*12 B[3]
*13 B[4]
*14 B[5]
*15 B[6]
*16 B[7]
*17 net50
*18 P[10]
*19 P[11]
*20 P[12]
*21 P[13]
*22 P[14]
*23 P[15]
*24 P[1]
*25 P[2]
*26 P[3]
*27 P[4]
*28 P[5]
*29 P[6]
*30 P[7]
*31 P[8]
*32 P[9]
*35 _000_
*36 _001_
*37 _002_
*38 _003_
*39 _004_
*40 _005_
*41 _006_
*42 _007_
*43 _008_
*44 _009_
*45 _010_
*46 _011_
*47 _012_
*48 _013_
*49 _014_
*50 _015_
*51 _016_
*52 _017_
*53 _018_
*54 _019_
*55 _020_
*56 _021_
*57 _022_
*58 _023_
*59 _024_
*60 _025_
*61 _026_
*62 _027_
*63 _028_
*64 _029_
*65 _030_
*66 _031_
*67 _032_
*68 _033_
*69 _034_
*70 _035_
*71 _036_
*72 _037_
*73 _038_
*74 _039_
*75 _040_
*76 _041_
*77 _042_
*78 _043_
*79 _044_
*80 _045_
*81 _046_
*82 _047_
*83 _048_
*84 _049_
*85 _050_
*86 _051_
*87 _052_
*88 _053_
*89 _054_
*90 _055_
*91 _056_
*92 _057_
*93 _058_
*94 _059_
*95 _060_
*96 _061_
*97 _062_
*98 _063_
*99 _064_
*100 _065_
*101 _066_
*102 _067_
*103 _068_
*104 _069_
*105 _070_
*106 _071_
*107 _072_
*108 _073_
*109 _074_
*110 _075_
*111 _076_
*112 _077_
*113 _078_
*114 _079_
*115 _080_
*116 _081_
*117 _082_
*118 _083_
*119 _084_
*120 _085_
*121 _086_
*122 _087_
*123 _088_
*124 _089_
*125 _090_
*126 _091_
*127 _092_
*128 _093_
*129 _094_
*130 _095_
*131 _096_
*132 _097_
*133 _098_
*134 _099_
*135 _100_
*136 _101_
*137 _102_
*138 _103_
*139 _104_
*140 _105_
*141 _106_
*142 _107_
*143 _108_
*144 _109_
*145 _110_
*146 _111_
*147 _112_
*148 _113_
*149 _114_
*150 _115_
*151 _116_
*152 _117_
*153 _118_
*154 _119_
*155 _120_
*156 _121_
*157 _122_
*158 _123_
*159 _124_
*160 _125_
*161 _126_
*162 _127_
*163 _128_
*164 _129_
*165 _130_
*166 _131_
*167 _132_
*168 _133_
*169 _134_
*170 _135_
*171 _136_
*172 _137_
*173 _138_
*174 _139_
*175 _140_
*176 _141_
*177 _142_
*178 _143_
*179 _144_
*180 _145_
*181 _146_
*182 _147_
*183 _148_
*184 _149_
*185 _150_
*186 _151_
*187 _152_
*188 _153_
*189 _154_
*190 _155_
*191 _156_
*192 _157_
*193 _158_
*194 _159_
*195 _160_
*196 _161_
*197 _162_
*198 _163_
*199 _164_
*200 _165_
*201 _166_
*202 _167_
*203 _168_
*204 _169_
*205 _170_
*206 _171_
*207 _172_
*208 _173_
*209 _174_
*210 _175_
*211 _176_
*212 _177_
*213 _178_
*214 _179_
*215 _180_
*216 _181_
*217 _182_
*218 _183_
*219 _184_
*220 _185_
*221 _186_
*222 _187_
*223 _188_
*224 _189_
*225 _190_
*226 _191_
*227 _192_
*228 _193_
*229 _194_
*230 _195_
*231 _196_
*232 _197_
*233 _198_
*234 _199_
*235 _200_
*236 _201_
*237 _202_
*238 _203_
*239 _204_
*240 _205_
*241 _206_
*242 _207_
*243 _208_
*244 _209_
*245 _210_
*246 _211_
*247 _212_
*248 _213_
*249 _214_
*250 _215_
*251 _216_
*252 _217_
*253 _218_
*254 _219_
*255 _220_
*256 _221_
*257 _222_
*258 _223_
*259 _224_
*260 _225_
*261 _226_
*262 _227_
*263 _228_
*264 _229_
*265 net1
*266 net10
*267 net107
*268 net108
*269 net109
*270 net11
*271 net12
*272 net13
*273 net14
*274 net15
*275 net16
*276 net17
*277 net18
*278 net19
*279 net2
*280 net20
*281 net21
*282 net22
*283 net23
*284 net24
*285 net25
*286 net26
*287 net27
*288 net28
*289 net29
*290 net3
*291 net30
*292 net31
*293 net32
*294 net33
*295 net34
*296 net35
*297 net36
*298 net37
*299 net38
*300 net39
*301 net4
*302 net40
*303 net41
*304 net42
*305 net43
*306 net44
*307 net45
*308 net46
*309 net47
*310 net48
*311 net49
*312 net5
*313 net51
*314 net52
*315 net53
*316 net54
*317 net55
*318 net56
*319 net57
*320 net58
*321 net59
*322 net6
*323 net60
*324 net61
*325 net62
*326 net63
*327 net64
*328 net65
*329 net66
*330 net67
*331 net68
*332 net69
*333 net7
*334 net70
*335 net71
*336 net72
*337 net73
*338 net74
*339 net75
*340 net76
*341 net77
*342 net78
*343 net79
*344 net8
*345 net80
*346 net81
*347 net82
*348 net83
*349 net84
*350 net85
*351 net86
*352 net87
*353 net88
*354 net9
*355 FILLER_0_109
*356 FILLER_0_113
*357 FILLER_0_121
*358 FILLER_0_126
*359 FILLER_0_132
*360 FILLER_0_141
*361 FILLER_0_147
*362 FILLER_0_15
*363 FILLER_0_156
*364 FILLER_0_169
*365 FILLER_0_181
*366 FILLER_0_188
*367 FILLER_0_197
*368 FILLER_0_205
*369 FILLER_0_217
*370 FILLER_0_223
*371 FILLER_0_225
*372 FILLER_0_237
*373 FILLER_0_244
*374 FILLER_0_253
*375 FILLER_0_265
*376 FILLER_0_27
*377 FILLER_0_277
*378 FILLER_0_281
*379 FILLER_0_289
*380 FILLER_0_29
*381 FILLER_0_294
*382 FILLER_0_3
*383 FILLER_0_306
*384 FILLER_0_309
*385 FILLER_0_321
*386 FILLER_0_333
*387 FILLER_0_337
*388 FILLER_0_349
*389 FILLER_0_361
*390 FILLER_0_365
*391 FILLER_0_377
*392 FILLER_0_389
*393 FILLER_0_393
*394 FILLER_0_405
*395 FILLER_0_41
*396 FILLER_0_53
*397 FILLER_0_57
*398 FILLER_0_69
*399 FILLER_0_81
*400 FILLER_0_85
*401 FILLER_0_97
*402 FILLER_10_109
*403 FILLER_10_121
*404 FILLER_10_133
*405 FILLER_10_139
*406 FILLER_10_141
*407 FILLER_10_15
*408 FILLER_10_153
*409 FILLER_10_165
*410 FILLER_10_177
*411 FILLER_10_189
*412 FILLER_10_195
*413 FILLER_10_197
*414 FILLER_10_209
*415 FILLER_10_221
*416 FILLER_10_233
*417 FILLER_10_245
*418 FILLER_10_251
*419 FILLER_10_253
*420 FILLER_10_265
*421 FILLER_10_27
*422 FILLER_10_277
*423 FILLER_10_289
*424 FILLER_10_29
*425 FILLER_10_3
*426 FILLER_10_301
*427 FILLER_10_307
*428 FILLER_10_309
*429 FILLER_10_321
*430 FILLER_10_333
*431 FILLER_10_345
*432 FILLER_10_357
*433 FILLER_10_363
*434 FILLER_10_365
*435 FILLER_10_377
*436 FILLER_10_389
*437 FILLER_10_401
*438 FILLER_10_41
*439 FILLER_10_53
*440 FILLER_10_65
*441 FILLER_10_77
*442 FILLER_10_83
*443 FILLER_10_85
*444 FILLER_10_97
*445 FILLER_11_105
*446 FILLER_11_111
*447 FILLER_11_113
*448 FILLER_11_125
*449 FILLER_11_137
*450 FILLER_11_149
*451 FILLER_11_15
*452 FILLER_11_161
*453 FILLER_11_167
*454 FILLER_11_169
*455 FILLER_11_181
*456 FILLER_11_193
*457 FILLER_11_205
*458 FILLER_11_217
*459 FILLER_11_223
*460 FILLER_11_243
*461 FILLER_11_255
*462 FILLER_11_267
*463 FILLER_11_27
*464 FILLER_11_279
*465 FILLER_11_281
*466 FILLER_11_293
*467 FILLER_11_3
*468 FILLER_11_305
*469 FILLER_11_317
*470 FILLER_11_329
*471 FILLER_11_335
*472 FILLER_11_337
*473 FILLER_11_349
*474 FILLER_11_361
*475 FILLER_11_373
*476 FILLER_11_385
*477 FILLER_11_39
*478 FILLER_11_391
*479 FILLER_11_393
*480 FILLER_11_405
*481 FILLER_11_51
*482 FILLER_11_55
*483 FILLER_11_57
*484 FILLER_11_69
*485 FILLER_11_81
*486 FILLER_11_93
*487 FILLER_12_109
*488 FILLER_12_121
*489 FILLER_12_133
*490 FILLER_12_139
*491 FILLER_12_141
*492 FILLER_12_15
*493 FILLER_12_153
*494 FILLER_12_165
*495 FILLER_12_177
*496 FILLER_12_189
*497 FILLER_12_195
*498 FILLER_12_197
*499 FILLER_12_205
*500 FILLER_12_224
*501 FILLER_12_228
*502 FILLER_12_241
*503 FILLER_12_249
*504 FILLER_12_253
*505 FILLER_12_257
*506 FILLER_12_27
*507 FILLER_12_270
*508 FILLER_12_282
*509 FILLER_12_29
*510 FILLER_12_294
*511 FILLER_12_3
*512 FILLER_12_306
*513 FILLER_12_309
*514 FILLER_12_321
*515 FILLER_12_333
*516 FILLER_12_345
*517 FILLER_12_357
*518 FILLER_12_363
*519 FILLER_12_365
*520 FILLER_12_377
*521 FILLER_12_389
*522 FILLER_12_401
*523 FILLER_12_41
*524 FILLER_12_53
*525 FILLER_12_65
*526 FILLER_12_77
*527 FILLER_12_83
*528 FILLER_12_85
*529 FILLER_12_97
*530 FILLER_13_105
*531 FILLER_13_111
*532 FILLER_13_113
*533 FILLER_13_125
*534 FILLER_13_145
*535 FILLER_13_15
*536 FILLER_13_164
*537 FILLER_13_176
*538 FILLER_13_188
*539 FILLER_13_200
*540 FILLER_13_212
*541 FILLER_13_239
*542 FILLER_13_251
*543 FILLER_13_263
*544 FILLER_13_27
*545 FILLER_13_275
*546 FILLER_13_279
*547 FILLER_13_288
*548 FILLER_13_3
*549 FILLER_13_300
*550 FILLER_13_312
*551 FILLER_13_316
*552 FILLER_13_320
*553 FILLER_13_329
*554 FILLER_13_335
*555 FILLER_13_337
*556 FILLER_13_349
*557 FILLER_13_361
*558 FILLER_13_373
*559 FILLER_13_385
*560 FILLER_13_39
*561 FILLER_13_391
*562 FILLER_13_393
*563 FILLER_13_405
*564 FILLER_13_51
*565 FILLER_13_55
*566 FILLER_13_57
*567 FILLER_13_69
*568 FILLER_13_81
*569 FILLER_13_93
*570 FILLER_14_109
*571 FILLER_14_121
*572 FILLER_14_127
*573 FILLER_14_15
*574 FILLER_14_156
*575 FILLER_14_168
*576 FILLER_14_176
*577 FILLER_14_190
*578 FILLER_14_197
*579 FILLER_14_209
*580 FILLER_14_231
*581 FILLER_14_237
*582 FILLER_14_249
*583 FILLER_14_253
*584 FILLER_14_266
*585 FILLER_14_27
*586 FILLER_14_280
*587 FILLER_14_29
*588 FILLER_14_292
*589 FILLER_14_3
*590 FILLER_14_304
*591 FILLER_14_316
*592 FILLER_14_323
*593 FILLER_14_335
*594 FILLER_14_347
*595 FILLER_14_359
*596 FILLER_14_363
*597 FILLER_14_365
*598 FILLER_14_377
*599 FILLER_14_389
*600 FILLER_14_401
*601 FILLER_14_41
*602 FILLER_14_53
*603 FILLER_14_65
*604 FILLER_14_77
*605 FILLER_14_83
*606 FILLER_14_85
*607 FILLER_14_97
*608 FILLER_15_105
*609 FILLER_15_111
*610 FILLER_15_113
*611 FILLER_15_125
*612 FILLER_15_138
*613 FILLER_15_149
*614 FILLER_15_15
*615 FILLER_15_161
*616 FILLER_15_167
*617 FILLER_15_169
*618 FILLER_15_178
*619 FILLER_15_190
*620 FILLER_15_196
*621 FILLER_15_208
*622 FILLER_15_220
*623 FILLER_15_225
*624 FILLER_15_237
*625 FILLER_15_249
*626 FILLER_15_261
*627 FILLER_15_265
*628 FILLER_15_27
*629 FILLER_15_275
*630 FILLER_15_279
*631 FILLER_15_281
*632 FILLER_15_293
*633 FILLER_15_3
*634 FILLER_15_301
*635 FILLER_15_309
*636 FILLER_15_321
*637 FILLER_15_333
*638 FILLER_15_337
*639 FILLER_15_349
*640 FILLER_15_361
*641 FILLER_15_373
*642 FILLER_15_385
*643 FILLER_15_39
*644 FILLER_15_391
*645 FILLER_15_393
*646 FILLER_15_405
*647 FILLER_15_51
*648 FILLER_15_55
*649 FILLER_15_57
*650 FILLER_15_69
*651 FILLER_15_81
*652 FILLER_15_93
*653 FILLER_16_109
*654 FILLER_16_117
*655 FILLER_16_138
*656 FILLER_16_148
*657 FILLER_16_15
*658 FILLER_16_160
*659 FILLER_16_172
*660 FILLER_16_177
*661 FILLER_16_185
*662 FILLER_16_191
*663 FILLER_16_195
*664 FILLER_16_197
*665 FILLER_16_209
*666 FILLER_16_221
*667 FILLER_16_233
*668 FILLER_16_245
*669 FILLER_16_251
*670 FILLER_16_253
*671 FILLER_16_265
*672 FILLER_16_27
*673 FILLER_16_276
*674 FILLER_16_281
*675 FILLER_16_29
*676 FILLER_16_293
*677 FILLER_16_3
*678 FILLER_16_318
*679 FILLER_16_330
*680 FILLER_16_342
*681 FILLER_16_352
*682 FILLER_16_356
*683 FILLER_16_365
*684 FILLER_16_377
*685 FILLER_16_389
*686 FILLER_16_401
*687 FILLER_16_41
*688 FILLER_16_53
*689 FILLER_16_65
*690 FILLER_16_77
*691 FILLER_16_83
*692 FILLER_16_85
*693 FILLER_16_97
*694 FILLER_17_105
*695 FILLER_17_111
*696 FILLER_17_113
*697 FILLER_17_122
*698 FILLER_17_143
*699 FILLER_17_15
*700 FILLER_17_155
*701 FILLER_17_167
*702 FILLER_17_169
*703 FILLER_17_177
*704 FILLER_17_197
*705 FILLER_17_209
*706 FILLER_17_221
*707 FILLER_17_225
*708 FILLER_17_237
*709 FILLER_17_249
*710 FILLER_17_261
*711 FILLER_17_27
*712 FILLER_17_273
*713 FILLER_17_279
*714 FILLER_17_290
*715 FILLER_17_3
*716 FILLER_17_302
*717 FILLER_17_314
*718 FILLER_17_326
*719 FILLER_17_334
*720 FILLER_17_341
*721 FILLER_17_356
*722 FILLER_17_368
*723 FILLER_17_380
*724 FILLER_17_39
*725 FILLER_17_393
*726 FILLER_17_401
*727 FILLER_17_51
*728 FILLER_17_55
*729 FILLER_17_57
*730 FILLER_17_69
*731 FILLER_17_81
*732 FILLER_17_93
*733 FILLER_18_109
*734 FILLER_18_129
*735 FILLER_18_141
*736 FILLER_18_15
*737 FILLER_18_153
*738 FILLER_18_165
*739 FILLER_18_169
*740 FILLER_18_179
*741 FILLER_18_192
*742 FILLER_18_204
*743 FILLER_18_216
*744 FILLER_18_228
*745 FILLER_18_240
*746 FILLER_18_253
*747 FILLER_18_265
*748 FILLER_18_27
*749 FILLER_18_277
*750 FILLER_18_289
*751 FILLER_18_29
*752 FILLER_18_3
*753 FILLER_18_301
*754 FILLER_18_307
*755 FILLER_18_309
*756 FILLER_18_321
*757 FILLER_18_340
*758 FILLER_18_345
*759 FILLER_18_352
*760 FILLER_18_365
*761 FILLER_18_377
*762 FILLER_18_389
*763 FILLER_18_401
*764 FILLER_18_41
*765 FILLER_18_53
*766 FILLER_18_65
*767 FILLER_18_77
*768 FILLER_18_83
*769 FILLER_18_85
*770 FILLER_18_97
*771 FILLER_19_105
*772 FILLER_19_111
*773 FILLER_19_113
*774 FILLER_19_125
*775 FILLER_19_140
*776 FILLER_19_15
*777 FILLER_19_152
*778 FILLER_19_164
*779 FILLER_19_169
*780 FILLER_19_177
*781 FILLER_19_186
*782 FILLER_19_198
*783 FILLER_19_210
*784 FILLER_19_222
*785 FILLER_19_225
*786 FILLER_19_237
*787 FILLER_19_245
*788 FILLER_19_256
*789 FILLER_19_268
*790 FILLER_19_27
*791 FILLER_19_281
*792 FILLER_19_293
*793 FILLER_19_3
*794 FILLER_19_305
*795 FILLER_19_313
*796 FILLER_19_321
*797 FILLER_19_333
*798 FILLER_19_337
*799 FILLER_19_343
*800 FILLER_19_355
*801 FILLER_19_367
*802 FILLER_19_379
*803 FILLER_19_39
*804 FILLER_19_391
*805 FILLER_19_393
*806 FILLER_19_401
*807 FILLER_19_51
*808 FILLER_19_55
*809 FILLER_19_57
*810 FILLER_19_69
*811 FILLER_19_81
*812 FILLER_19_93
*813 FILLER_1_105
*814 FILLER_1_111
*815 FILLER_1_113
*816 FILLER_1_125
*817 FILLER_1_137
*818 FILLER_1_149
*819 FILLER_1_15
*820 FILLER_1_161
*821 FILLER_1_167
*822 FILLER_1_169
*823 FILLER_1_181
*824 FILLER_1_193
*825 FILLER_1_205
*826 FILLER_1_217
*827 FILLER_1_223
*828 FILLER_1_225
*829 FILLER_1_237
*830 FILLER_1_249
*831 FILLER_1_261
*832 FILLER_1_27
*833 FILLER_1_273
*834 FILLER_1_279
*835 FILLER_1_281
*836 FILLER_1_293
*837 FILLER_1_3
*838 FILLER_1_305
*839 FILLER_1_317
*840 FILLER_1_329
*841 FILLER_1_335
*842 FILLER_1_337
*843 FILLER_1_349
*844 FILLER_1_361
*845 FILLER_1_373
*846 FILLER_1_385
*847 FILLER_1_39
*848 FILLER_1_391
*849 FILLER_1_393
*850 FILLER_1_405
*851 FILLER_1_51
*852 FILLER_1_55
*853 FILLER_1_57
*854 FILLER_1_69
*855 FILLER_1_81
*856 FILLER_1_93
*857 FILLER_20_109
*858 FILLER_20_121
*859 FILLER_20_133
*860 FILLER_20_139
*861 FILLER_20_15
*862 FILLER_20_151
*863 FILLER_20_163
*864 FILLER_20_175
*865 FILLER_20_187
*866 FILLER_20_195
*867 FILLER_20_197
*868 FILLER_20_219
*869 FILLER_20_225
*870 FILLER_20_237
*871 FILLER_20_249
*872 FILLER_20_253
*873 FILLER_20_265
*874 FILLER_20_27
*875 FILLER_20_277
*876 FILLER_20_289
*877 FILLER_20_29
*878 FILLER_20_3
*879 FILLER_20_301
*880 FILLER_20_307
*881 FILLER_20_309
*882 FILLER_20_321
*883 FILLER_20_333
*884 FILLER_20_345
*885 FILLER_20_357
*886 FILLER_20_363
*887 FILLER_20_365
*888 FILLER_20_377
*889 FILLER_20_389
*890 FILLER_20_401
*891 FILLER_20_41
*892 FILLER_20_53
*893 FILLER_20_65
*894 FILLER_20_77
*895 FILLER_20_83
*896 FILLER_20_85
*897 FILLER_20_97
*898 FILLER_21_105
*899 FILLER_21_111
*900 FILLER_21_113
*901 FILLER_21_125
*902 FILLER_21_137
*903 FILLER_21_149
*904 FILLER_21_15
*905 FILLER_21_161
*906 FILLER_21_167
*907 FILLER_21_169
*908 FILLER_21_177
*909 FILLER_21_194
*910 FILLER_21_206
*911 FILLER_21_218
*912 FILLER_21_232
*913 FILLER_21_244
*914 FILLER_21_256
*915 FILLER_21_260
*916 FILLER_21_27
*917 FILLER_21_271
*918 FILLER_21_279
*919 FILLER_21_281
*920 FILLER_21_285
*921 FILLER_21_290
*922 FILLER_21_3
*923 FILLER_21_311
*924 FILLER_21_323
*925 FILLER_21_335
*926 FILLER_21_337
*927 FILLER_21_349
*928 FILLER_21_361
*929 FILLER_21_373
*930 FILLER_21_385
*931 FILLER_21_39
*932 FILLER_21_391
*933 FILLER_21_393
*934 FILLER_21_51
*935 FILLER_21_55
*936 FILLER_21_57
*937 FILLER_21_69
*938 FILLER_21_81
*939 FILLER_21_93
*940 FILLER_22_109
*941 FILLER_22_121
*942 FILLER_22_133
*943 FILLER_22_139
*944 FILLER_22_141
*945 FILLER_22_15
*946 FILLER_22_153
*947 FILLER_22_165
*948 FILLER_22_177
*949 FILLER_22_189
*950 FILLER_22_195
*951 FILLER_22_197
*952 FILLER_22_209
*953 FILLER_22_221
*954 FILLER_22_233
*955 FILLER_22_245
*956 FILLER_22_251
*957 FILLER_22_253
*958 FILLER_22_263
*959 FILLER_22_27
*960 FILLER_22_275
*961 FILLER_22_281
*962 FILLER_22_29
*963 FILLER_22_295
*964 FILLER_22_3
*965 FILLER_22_307
*966 FILLER_22_309
*967 FILLER_22_320
*968 FILLER_22_332
*969 FILLER_22_344
*970 FILLER_22_356
*971 FILLER_22_365
*972 FILLER_22_377
*973 FILLER_22_389
*974 FILLER_22_41
*975 FILLER_22_53
*976 FILLER_22_65
*977 FILLER_22_77
*978 FILLER_22_83
*979 FILLER_22_85
*980 FILLER_22_97
*981 FILLER_23_105
*982 FILLER_23_111
*983 FILLER_23_113
*984 FILLER_23_125
*985 FILLER_23_15
*986 FILLER_23_153
*987 FILLER_23_159
*988 FILLER_23_167
*989 FILLER_23_169
*990 FILLER_23_182
*991 FILLER_23_194
*992 FILLER_23_206
*993 FILLER_23_218
*994 FILLER_23_225
*995 FILLER_23_237
*996 FILLER_23_249
*997 FILLER_23_261
*998 FILLER_23_27
*999 FILLER_23_273
*1000 FILLER_23_279
*1001 FILLER_23_281
*1002 FILLER_23_293
*1003 FILLER_23_3
*1004 FILLER_23_305
*1005 FILLER_23_317
*1006 FILLER_23_329
*1007 FILLER_23_335
*1008 FILLER_23_337
*1009 FILLER_23_349
*1010 FILLER_23_361
*1011 FILLER_23_373
*1012 FILLER_23_385
*1013 FILLER_23_39
*1014 FILLER_23_391
*1015 FILLER_23_393
*1016 FILLER_23_405
*1017 FILLER_23_51
*1018 FILLER_23_55
*1019 FILLER_23_57
*1020 FILLER_23_69
*1021 FILLER_23_81
*1022 FILLER_23_93
*1023 FILLER_24_109
*1024 FILLER_24_121
*1025 FILLER_24_133
*1026 FILLER_24_139
*1027 FILLER_24_141
*1028 FILLER_24_147
*1029 FILLER_24_15
*1030 FILLER_24_160
*1031 FILLER_24_172
*1032 FILLER_24_184
*1033 FILLER_24_197
*1034 FILLER_24_209
*1035 FILLER_24_221
*1036 FILLER_24_233
*1037 FILLER_24_245
*1038 FILLER_24_251
*1039 FILLER_24_253
*1040 FILLER_24_265
*1041 FILLER_24_27
*1042 FILLER_24_277
*1043 FILLER_24_289
*1044 FILLER_24_29
*1045 FILLER_24_3
*1046 FILLER_24_301
*1047 FILLER_24_309
*1048 FILLER_24_330
*1049 FILLER_24_342
*1050 FILLER_24_354
*1051 FILLER_24_362
*1052 FILLER_24_365
*1053 FILLER_24_377
*1054 FILLER_24_389
*1055 FILLER_24_397
*1056 FILLER_24_41
*1057 FILLER_24_53
*1058 FILLER_24_65
*1059 FILLER_24_77
*1060 FILLER_24_83
*1061 FILLER_24_85
*1062 FILLER_24_97
*1063 FILLER_25_105
*1064 FILLER_25_111
*1065 FILLER_25_113
*1066 FILLER_25_125
*1067 FILLER_25_137
*1068 FILLER_25_149
*1069 FILLER_25_15
*1070 FILLER_25_161
*1071 FILLER_25_167
*1072 FILLER_25_169
*1073 FILLER_25_181
*1074 FILLER_25_193
*1075 FILLER_25_205
*1076 FILLER_25_213
*1077 FILLER_25_242
*1078 FILLER_25_254
*1079 FILLER_25_266
*1080 FILLER_25_27
*1081 FILLER_25_278
*1082 FILLER_25_281
*1083 FILLER_25_293
*1084 FILLER_25_3
*1085 FILLER_25_301
*1086 FILLER_25_307
*1087 FILLER_25_315
*1088 FILLER_25_325
*1089 FILLER_25_333
*1090 FILLER_25_337
*1091 FILLER_25_349
*1092 FILLER_25_361
*1093 FILLER_25_373
*1094 FILLER_25_385
*1095 FILLER_25_39
*1096 FILLER_25_391
*1097 FILLER_25_393
*1098 FILLER_25_405
*1099 FILLER_25_51
*1100 FILLER_25_55
*1101 FILLER_25_57
*1102 FILLER_25_69
*1103 FILLER_25_81
*1104 FILLER_25_93
*1105 FILLER_26_109
*1106 FILLER_26_121
*1107 FILLER_26_133
*1108 FILLER_26_139
*1109 FILLER_26_141
*1110 FILLER_26_15
*1111 FILLER_26_153
*1112 FILLER_26_165
*1113 FILLER_26_177
*1114 FILLER_26_189
*1115 FILLER_26_195
*1116 FILLER_26_197
*1117 FILLER_26_209
*1118 FILLER_26_215
*1119 FILLER_26_247
*1120 FILLER_26_251
*1121 FILLER_26_269
*1122 FILLER_26_27
*1123 FILLER_26_281
*1124 FILLER_26_29
*1125 FILLER_26_293
*1126 FILLER_26_297
*1127 FILLER_26_3
*1128 FILLER_26_301
*1129 FILLER_26_307
*1130 FILLER_26_309
*1131 FILLER_26_329
*1132 FILLER_26_341
*1133 FILLER_26_353
*1134 FILLER_26_361
*1135 FILLER_26_365
*1136 FILLER_26_377
*1137 FILLER_26_389
*1138 FILLER_26_401
*1139 FILLER_26_41
*1140 FILLER_26_53
*1141 FILLER_26_65
*1142 FILLER_26_77
*1143 FILLER_26_83
*1144 FILLER_26_85
*1145 FILLER_26_97
*1146 FILLER_27_105
*1147 FILLER_27_111
*1148 FILLER_27_113
*1149 FILLER_27_125
*1150 FILLER_27_137
*1151 FILLER_27_149
*1152 FILLER_27_15
*1153 FILLER_27_161
*1154 FILLER_27_167
*1155 FILLER_27_169
*1156 FILLER_27_181
*1157 FILLER_27_193
*1158 FILLER_27_206
*1159 FILLER_27_218
*1160 FILLER_27_235
*1161 FILLER_27_247
*1162 FILLER_27_259
*1163 FILLER_27_27
*1164 FILLER_27_271
*1165 FILLER_27_279
*1166 FILLER_27_281
*1167 FILLER_27_293
*1168 FILLER_27_3
*1169 FILLER_27_308
*1170 FILLER_27_320
*1171 FILLER_27_332
*1172 FILLER_27_337
*1173 FILLER_27_349
*1174 FILLER_27_361
*1175 FILLER_27_373
*1176 FILLER_27_385
*1177 FILLER_27_39
*1178 FILLER_27_391
*1179 FILLER_27_393
*1180 FILLER_27_51
*1181 FILLER_27_55
*1182 FILLER_27_57
*1183 FILLER_27_69
*1184 FILLER_27_81
*1185 FILLER_27_93
*1186 FILLER_28_109
*1187 FILLER_28_121
*1188 FILLER_28_133
*1189 FILLER_28_139
*1190 FILLER_28_141
*1191 FILLER_28_15
*1192 FILLER_28_153
*1193 FILLER_28_165
*1194 FILLER_28_171
*1195 FILLER_28_190
*1196 FILLER_28_197
*1197 FILLER_28_205
*1198 FILLER_28_225
*1199 FILLER_28_237
*1200 FILLER_28_249
*1201 FILLER_28_268
*1202 FILLER_28_27
*1203 FILLER_28_280
*1204 FILLER_28_29
*1205 FILLER_28_292
*1206 FILLER_28_3
*1207 FILLER_28_304
*1208 FILLER_28_309
*1209 FILLER_28_325
*1210 FILLER_28_337
*1211 FILLER_28_349
*1212 FILLER_28_361
*1213 FILLER_28_365
*1214 FILLER_28_377
*1215 FILLER_28_389
*1216 FILLER_28_401
*1217 FILLER_28_41
*1218 FILLER_28_53
*1219 FILLER_28_65
*1220 FILLER_28_77
*1221 FILLER_28_83
*1222 FILLER_28_85
*1223 FILLER_28_97
*1224 FILLER_29_105
*1225 FILLER_29_111
*1226 FILLER_29_113
*1227 FILLER_29_125
*1228 FILLER_29_131
*1229 FILLER_29_15
*1230 FILLER_29_160
*1231 FILLER_29_169
*1232 FILLER_29_181
*1233 FILLER_29_193
*1234 FILLER_29_205
*1235 FILLER_29_223
*1236 FILLER_29_225
*1237 FILLER_29_237
*1238 FILLER_29_249
*1239 FILLER_29_255
*1240 FILLER_29_27
*1241 FILLER_29_271
*1242 FILLER_29_279
*1243 FILLER_29_281
*1244 FILLER_29_293
*1245 FILLER_29_3
*1246 FILLER_29_305
*1247 FILLER_29_317
*1248 FILLER_29_329
*1249 FILLER_29_335
*1250 FILLER_29_337
*1251 FILLER_29_349
*1252 FILLER_29_361
*1253 FILLER_29_373
*1254 FILLER_29_385
*1255 FILLER_29_39
*1256 FILLER_29_391
*1257 FILLER_29_393
*1258 FILLER_29_405
*1259 FILLER_29_51
*1260 FILLER_29_55
*1261 FILLER_29_57
*1262 FILLER_29_69
*1263 FILLER_29_81
*1264 FILLER_29_93
*1265 FILLER_2_109
*1266 FILLER_2_121
*1267 FILLER_2_133
*1268 FILLER_2_139
*1269 FILLER_2_141
*1270 FILLER_2_147
*1271 FILLER_2_15
*1272 FILLER_2_159
*1273 FILLER_2_171
*1274 FILLER_2_183
*1275 FILLER_2_195
*1276 FILLER_2_197
*1277 FILLER_2_209
*1278 FILLER_2_224
*1279 FILLER_2_236
*1280 FILLER_2_248
*1281 FILLER_2_261
*1282 FILLER_2_27
*1283 FILLER_2_273
*1284 FILLER_2_285
*1285 FILLER_2_29
*1286 FILLER_2_297
*1287 FILLER_2_3
*1288 FILLER_2_305
*1289 FILLER_2_309
*1290 FILLER_2_321
*1291 FILLER_2_333
*1292 FILLER_2_345
*1293 FILLER_2_357
*1294 FILLER_2_363
*1295 FILLER_2_365
*1296 FILLER_2_377
*1297 FILLER_2_389
*1298 FILLER_2_401
*1299 FILLER_2_41
*1300 FILLER_2_53
*1301 FILLER_2_65
*1302 FILLER_2_77
*1303 FILLER_2_83
*1304 FILLER_2_85
*1305 FILLER_2_97
*1306 FILLER_30_109
*1307 FILLER_30_121
*1308 FILLER_30_129
*1309 FILLER_30_15
*1310 FILLER_30_174
*1311 FILLER_30_186
*1312 FILLER_30_194
*1313 FILLER_30_197
*1314 FILLER_30_209
*1315 FILLER_30_226
*1316 FILLER_30_238
*1317 FILLER_30_250
*1318 FILLER_30_266
*1319 FILLER_30_27
*1320 FILLER_30_278
*1321 FILLER_30_29
*1322 FILLER_30_290
*1323 FILLER_30_3
*1324 FILLER_30_302
*1325 FILLER_30_309
*1326 FILLER_30_321
*1327 FILLER_30_333
*1328 FILLER_30_345
*1329 FILLER_30_357
*1330 FILLER_30_363
*1331 FILLER_30_365
*1332 FILLER_30_377
*1333 FILLER_30_389
*1334 FILLER_30_401
*1335 FILLER_30_41
*1336 FILLER_30_53
*1337 FILLER_30_65
*1338 FILLER_30_77
*1339 FILLER_30_83
*1340 FILLER_30_85
*1341 FILLER_30_97
*1342 FILLER_31_105
*1343 FILLER_31_111
*1344 FILLER_31_113
*1345 FILLER_31_125
*1346 FILLER_31_137
*1347 FILLER_31_149
*1348 FILLER_31_15
*1349 FILLER_31_178
*1350 FILLER_31_187
*1351 FILLER_31_201
*1352 FILLER_31_213
*1353 FILLER_31_221
*1354 FILLER_31_225
*1355 FILLER_31_237
*1356 FILLER_31_255
*1357 FILLER_31_267
*1358 FILLER_31_27
*1359 FILLER_31_279
*1360 FILLER_31_281
*1361 FILLER_31_293
*1362 FILLER_31_3
*1363 FILLER_31_305
*1364 FILLER_31_317
*1365 FILLER_31_329
*1366 FILLER_31_335
*1367 FILLER_31_337
*1368 FILLER_31_349
*1369 FILLER_31_361
*1370 FILLER_31_373
*1371 FILLER_31_385
*1372 FILLER_31_39
*1373 FILLER_31_391
*1374 FILLER_31_393
*1375 FILLER_31_397
*1376 FILLER_31_51
*1377 FILLER_31_55
*1378 FILLER_31_57
*1379 FILLER_31_69
*1380 FILLER_31_81
*1381 FILLER_31_93
*1382 FILLER_32_109
*1383 FILLER_32_121
*1384 FILLER_32_133
*1385 FILLER_32_139
*1386 FILLER_32_141
*1387 FILLER_32_149
*1388 FILLER_32_15
*1389 FILLER_32_178
*1390 FILLER_32_190
*1391 FILLER_32_204
*1392 FILLER_32_216
*1393 FILLER_32_231
*1394 FILLER_32_243
*1395 FILLER_32_251
*1396 FILLER_32_253
*1397 FILLER_32_265
*1398 FILLER_32_27
*1399 FILLER_32_277
*1400 FILLER_32_289
*1401 FILLER_32_29
*1402 FILLER_32_3
*1403 FILLER_32_301
*1404 FILLER_32_307
*1405 FILLER_32_309
*1406 FILLER_32_321
*1407 FILLER_32_333
*1408 FILLER_32_345
*1409 FILLER_32_357
*1410 FILLER_32_363
*1411 FILLER_32_365
*1412 FILLER_32_377
*1413 FILLER_32_389
*1414 FILLER_32_401
*1415 FILLER_32_41
*1416 FILLER_32_53
*1417 FILLER_32_65
*1418 FILLER_32_77
*1419 FILLER_32_83
*1420 FILLER_32_85
*1421 FILLER_32_97
*1422 FILLER_33_107
*1423 FILLER_33_111
*1424 FILLER_33_113
*1425 FILLER_33_125
*1426 FILLER_33_137
*1427 FILLER_33_149
*1428 FILLER_33_15
*1429 FILLER_33_157
*1430 FILLER_33_165
*1431 FILLER_33_169
*1432 FILLER_33_181
*1433 FILLER_33_189
*1434 FILLER_33_197
*1435 FILLER_33_209
*1436 FILLER_33_221
*1437 FILLER_33_225
*1438 FILLER_33_237
*1439 FILLER_33_249
*1440 FILLER_33_261
*1441 FILLER_33_27
*1442 FILLER_33_273
*1443 FILLER_33_279
*1444 FILLER_33_281
*1445 FILLER_33_293
*1446 FILLER_33_3
*1447 FILLER_33_305
*1448 FILLER_33_317
*1449 FILLER_33_329
*1450 FILLER_33_335
*1451 FILLER_33_337
*1452 FILLER_33_349
*1453 FILLER_33_361
*1454 FILLER_33_373
*1455 FILLER_33_385
*1456 FILLER_33_39
*1457 FILLER_33_391
*1458 FILLER_33_393
*1459 FILLER_33_405
*1460 FILLER_33_51
*1461 FILLER_33_55
*1462 FILLER_33_57
*1463 FILLER_33_69
*1464 FILLER_33_79
*1465 FILLER_33_91
*1466 FILLER_34_108
*1467 FILLER_34_120
*1468 FILLER_34_132
*1469 FILLER_34_141
*1470 FILLER_34_15
*1471 FILLER_34_153
*1472 FILLER_34_165
*1473 FILLER_34_177
*1474 FILLER_34_189
*1475 FILLER_34_195
*1476 FILLER_34_197
*1477 FILLER_34_209
*1478 FILLER_34_221
*1479 FILLER_34_233
*1480 FILLER_34_245
*1481 FILLER_34_251
*1482 FILLER_34_253
*1483 FILLER_34_265
*1484 FILLER_34_27
*1485 FILLER_34_277
*1486 FILLER_34_289
*1487 FILLER_34_29
*1488 FILLER_34_3
*1489 FILLER_34_301
*1490 FILLER_34_307
*1491 FILLER_34_309
*1492 FILLER_34_321
*1493 FILLER_34_333
*1494 FILLER_34_345
*1495 FILLER_34_357
*1496 FILLER_34_363
*1497 FILLER_34_365
*1498 FILLER_34_377
*1499 FILLER_34_389
*1500 FILLER_34_401
*1501 FILLER_34_41
*1502 FILLER_34_53
*1503 FILLER_34_61
*1504 FILLER_34_71
*1505 FILLER_34_79
*1506 FILLER_34_85
*1507 FILLER_34_91
*1508 FILLER_34_99
*1509 FILLER_35_111
*1510 FILLER_35_113
*1511 FILLER_35_120
*1512 FILLER_35_132
*1513 FILLER_35_140
*1514 FILLER_35_150
*1515 FILLER_35_162
*1516 FILLER_35_169
*1517 FILLER_35_18
*1518 FILLER_35_181
*1519 FILLER_35_193
*1520 FILLER_35_201
*1521 FILLER_35_212
*1522 FILLER_35_225
*1523 FILLER_35_240
*1524 FILLER_35_252
*1525 FILLER_35_264
*1526 FILLER_35_276
*1527 FILLER_35_281
*1528 FILLER_35_293
*1529 FILLER_35_30
*1530 FILLER_35_305
*1531 FILLER_35_317
*1532 FILLER_35_329
*1533 FILLER_35_335
*1534 FILLER_35_337
*1535 FILLER_35_349
*1536 FILLER_35_361
*1537 FILLER_35_373
*1538 FILLER_35_385
*1539 FILLER_35_391
*1540 FILLER_35_393
*1541 FILLER_35_405
*1542 FILLER_35_42
*1543 FILLER_35_54
*1544 FILLER_35_57
*1545 FILLER_35_6
*1546 FILLER_35_61
*1547 FILLER_35_68
*1548 FILLER_35_76
*1549 FILLER_35_99
*1550 FILLER_36_105
*1551 FILLER_36_127
*1552 FILLER_36_139
*1553 FILLER_36_141
*1554 FILLER_36_154
*1555 FILLER_36_166
*1556 FILLER_36_178
*1557 FILLER_36_186
*1558 FILLER_36_197
*1559 FILLER_36_21
*1560 FILLER_36_211
*1561 FILLER_36_223
*1562 FILLER_36_235
*1563 FILLER_36_243
*1564 FILLER_36_256
*1565 FILLER_36_268
*1566 FILLER_36_27
*1567 FILLER_36_280
*1568 FILLER_36_29
*1569 FILLER_36_292
*1570 FILLER_36_304
*1571 FILLER_36_309
*1572 FILLER_36_321
*1573 FILLER_36_333
*1574 FILLER_36_345
*1575 FILLER_36_357
*1576 FILLER_36_363
*1577 FILLER_36_365
*1578 FILLER_36_377
*1579 FILLER_36_389
*1580 FILLER_36_401
*1581 FILLER_36_41
*1582 FILLER_36_53
*1583 FILLER_36_68
*1584 FILLER_36_81
*1585 FILLER_36_85
*1586 FILLER_36_9
*1587 FILLER_36_97
*1588 FILLER_37_105
*1589 FILLER_37_111
*1590 FILLER_37_113
*1591 FILLER_37_124
*1592 FILLER_37_136
*1593 FILLER_37_144
*1594 FILLER_37_15
*1595 FILLER_37_159
*1596 FILLER_37_167
*1597 FILLER_37_169
*1598 FILLER_37_181
*1599 FILLER_37_193
*1600 FILLER_37_205
*1601 FILLER_37_217
*1602 FILLER_37_223
*1603 FILLER_37_225
*1604 FILLER_37_237
*1605 FILLER_37_245
*1606 FILLER_37_255
*1607 FILLER_37_268
*1608 FILLER_37_27
*1609 FILLER_37_281
*1610 FILLER_37_293
*1611 FILLER_37_3
*1612 FILLER_37_305
*1613 FILLER_37_317
*1614 FILLER_37_329
*1615 FILLER_37_335
*1616 FILLER_37_337
*1617 FILLER_37_349
*1618 FILLER_37_361
*1619 FILLER_37_373
*1620 FILLER_37_385
*1621 FILLER_37_39
*1622 FILLER_37_391
*1623 FILLER_37_393
*1624 FILLER_37_405
*1625 FILLER_37_51
*1626 FILLER_37_55
*1627 FILLER_37_57
*1628 FILLER_37_69
*1629 FILLER_37_81
*1630 FILLER_37_93
*1631 FILLER_38_100
*1632 FILLER_38_112
*1633 FILLER_38_124
*1634 FILLER_38_136
*1635 FILLER_38_141
*1636 FILLER_38_15
*1637 FILLER_38_153
*1638 FILLER_38_157
*1639 FILLER_38_169
*1640 FILLER_38_181
*1641 FILLER_38_193
*1642 FILLER_38_197
*1643 FILLER_38_222
*1644 FILLER_38_234
*1645 FILLER_38_246
*1646 FILLER_38_253
*1647 FILLER_38_265
*1648 FILLER_38_27
*1649 FILLER_38_277
*1650 FILLER_38_289
*1651 FILLER_38_29
*1652 FILLER_38_3
*1653 FILLER_38_301
*1654 FILLER_38_307
*1655 FILLER_38_309
*1656 FILLER_38_321
*1657 FILLER_38_333
*1658 FILLER_38_345
*1659 FILLER_38_357
*1660 FILLER_38_363
*1661 FILLER_38_365
*1662 FILLER_38_377
*1663 FILLER_38_389
*1664 FILLER_38_401
*1665 FILLER_38_41
*1666 FILLER_38_53
*1667 FILLER_38_57
*1668 FILLER_38_69
*1669 FILLER_38_81
*1670 FILLER_38_85
*1671 FILLER_39_100
*1672 FILLER_39_113
*1673 FILLER_39_125
*1674 FILLER_39_139
*1675 FILLER_39_15
*1676 FILLER_39_151
*1677 FILLER_39_163
*1678 FILLER_39_167
*1679 FILLER_39_169
*1680 FILLER_39_173
*1681 FILLER_39_186
*1682 FILLER_39_198
*1683 FILLER_39_210
*1684 FILLER_39_222
*1685 FILLER_39_225
*1686 FILLER_39_237
*1687 FILLER_39_249
*1688 FILLER_39_261
*1689 FILLER_39_27
*1690 FILLER_39_273
*1691 FILLER_39_279
*1692 FILLER_39_281
*1693 FILLER_39_293
*1694 FILLER_39_3
*1695 FILLER_39_305
*1696 FILLER_39_317
*1697 FILLER_39_329
*1698 FILLER_39_335
*1699 FILLER_39_337
*1700 FILLER_39_349
*1701 FILLER_39_361
*1702 FILLER_39_373
*1703 FILLER_39_385
*1704 FILLER_39_391
*1705 FILLER_39_393
*1706 FILLER_39_405