*SPEF "ieee 1481-1999"
*DESIGN "mult4_SarsaNada_e6_SARSA_RUIDO_e9_SARSA_RUIDO_e9_SARSA_RUIDO_e9"
*DATE "18:49:16 Tuesday September 16, 2025"
*VENDOR "The OpenROAD Project"
*PROGRAM "OpenROAD"
*VERSION "edf00dff99f6c40d67a30c0e22a8191c5d2ed9d6"
*DESIGN_FLOW "NAME_SCOPE LOCAL" "PIN_CAP NONE"
*DIVIDER /
*DELIMITER :
*BUS_DELIMITER []
*T_UNIT 1 NS
*C_UNIT 1 PF
*R_UNIT 1 OHM
*L_UNIT 1 HENRY

*NAME_MAP
*1 A[0]
*2 A[1]
*3 A[2]
*4 A[3]
*5 B[0]
*6 B[1]
*7 B[2]
*8 B[3]
*9 P[0]
*10 P[1]
*11 P[2]
*12 P[3]
*13 P[4]
*14 P[5]
*15 P[6]
*16 P[7]
*19 _000_
*20 _001_
*21 _002_
*22 _003_
*23 _004_
*24 _005_
*25 _006_
*26 _007_
*27 _008_
*28 _009_
*29 _010_
*30 _011_
*31 _012_
*32 _013_
*33 _014_
*34 _015_
*35 _016_
*36 _017_
*37 _018_
*38 _019_
*39 _020_
*40 _021_
*41 _022_
*42 _023_
*43 _024_
*44 _025_
*45 _026_
*46 _027_
*47 _028_
*48 _029_
*49 _030_
*50 _031_
*51 _032_
*52 _033_
*53 _034_
*54 _035_
*55 _036_
*56 _037_
*57 _038_
*58 _039_
*59 _040_
*60 _041_
*61 _042_
*62 _043_
*63 _044_
*64 _045_
*65 _046_
*66 net1
*67 net10
*68 net11
*69 net12
*70 net13
*71 net14
*72 net15
*73 net16
*74 net2
*75 net3
*76 net4
*77 net5
*78 net6
*79 net7
*80 net8
*81 net9
*82 FILLER_0_11
*83 FILLER_0_27
*84 FILLER_0_3
*85 FILLER_0_54
*86 FILLER_0_66
*87 FILLER_0_78
*88 FILLER_1_22
*89 FILLER_1_3
*90 FILLER_1_35
*91 FILLER_1_48
*92 FILLER_1_64
*93 FILLER_1_76
*94 FILLER_1_80
*95 FILLER_1_9
*96 FILLER_2_13
*97 FILLER_2_25
*98 FILLER_2_3
*99 FILLER_2_37
*100 FILLER_2_42
*101 FILLER_2_49
*102 FILLER_2_61
*103 FILLER_3_20
*104 FILLER_3_50
*105 FILLER_3_57
*106 FILLER_3_61
*107 FILLER_3_68
*108 FILLER_3_80
*109 FILLER_4_10
*110 FILLER_4_22
*111 FILLER_4_29
*112 FILLER_4_37
*113 FILLER_4_45
*114 FILLER_4_53
*115 FILLER_4_74
*116 FILLER_4_80
*117 FILLER_5_11
*118 FILLER_5_21
*119 FILLER_5_3
*120 FILLER_5_41
*121 FILLER_5_53
*122 FILLER_5_57
*123 FILLER_5_63
*124 FILLER_5_67
*125 FILLER_6_13
*126 FILLER_6_29
*127 FILLER_6_33
*128 FILLER_6_43
*129 FILLER_6_62
*130 FILLER_6_74
*131 FILLER_7_21
*132 FILLER_7_3
*133 FILLER_7_33
*134 FILLER_7_47
*135 FILLER_7_55
*136 FILLER_7_57
*137 FILLER_7_64
*138 FILLER_7_75
*139 FILLER_7_9
*140 FILLER_8_18
*141 FILLER_8_26
*142 FILLER_8_29
*143 FILLER_8_3
*144 FILLER_8_60
*145 FILLER_8_72
*146 FILLER_8_80
*147 FILLER_9_13
*148 FILLER_9_21
*149 FILLER_9_29
*150 FILLER_9_38
*151 FILLER_9_53
*152 FILLER_9_57
*153 FILLER_9_63
*154 FILLER_9_7
*155 FILLER_9_75
*156 PHY_EDGE_ROW_0_Left_10
*157 PHY_EDGE_ROW_0_Right_0
*158 PHY_EDGE_ROW_1_Left_11
*159 PHY_EDGE_ROW_1_Right_1
*160 PHY_EDGE_ROW_2_Left_12
*161 PHY_EDGE_ROW_2_Right_2
*162 PHY_EDGE_ROW_3_Left_13
*163 PHY_EDGE_ROW_3_Right_3
*164 PHY_EDGE_ROW_4_Left_14
*165 PHY_EDGE_ROW_4_Right_4
*166 PHY_EDGE_ROW_5_Left_15
*167 PHY_EDGE_ROW_5_Right_5
*168 PHY_EDGE_ROW_6_Left_16
*169 PHY_EDGE_ROW_6_Right_6
*170 PHY_EDGE_ROW_7_Left_17
*171 PHY_EDGE_ROW_7_Right_7
*172 PHY_EDGE_ROW_8_Left_18
*173 PHY_EDGE_ROW_8_Right_8
*174 PHY_EDGE_ROW_9_Left_19
*175 PHY_EDGE_ROW_9_Right_9
*176 TAP_TAPCELL_ROW_0_20
*177 TAP_TAPCELL_ROW_0_21
*178 TAP_TAPCELL_ROW_1_22
*179 TAP_TAPCELL_ROW_2_23
*180 TAP_TAPCELL_ROW_3_24
*181 TAP_TAPCELL_ROW_4_25
*182 TAP_TAPCELL_ROW_5_26
*183 TAP_TAPCELL_ROW_6_27
*184 TAP_TAPCELL_ROW_7_28
*185 TAP_TAPCELL_ROW_8_29
*186 TAP_TAPCELL_ROW_9_30
*187 TAP_TAPCELL_ROW_9_31
*188 _047_
*189 _048_
*190 _049_
*191 _050_
*192 _051_
*193 _052_
*194 _053_
*195 _054_
*196 _055_
*197 _056_
*198 _057_
*199 _058_
*200 _059_
*201 _060_
*202 _061_
*203 _062_
*204 _063_
*205 _064_
*206 _065_
*207 _066_
*208 _067_
*209 _068_
*210 _069_
*211 _070_
*212 _071_
*213 _072_
*214 _073_
*215 _074_
*216 _075_
*217 _076_
*218 _077_
*219 _078_
*220 _079_
*221 _080_
*222 _081_
*223 _082_
*224 _083_
*225 _084_
*226 _085_
*227 _086_
*228 _087_
*229 _088_
*230 _089_
*231 _090_
*232 _091_
*233 _092_
*234 _093_
*235 _094_
*236 _095_
*237 _096_
*238 _097_
*239 _098_
*240 _099_
*241 _100_
*242 _101_
*243 input1
*244 input2
*245 input3
*246 input4
*247 input5
*248 input6
*249 input7
*250 input8
*251 output10
*252 output11
*253 output12
*254 output13
*255 output14
*256 output15
*257 output16
*258 output9

*PORTS
A[0] I
A[1] I
A[2] I
A[3] I
B[0] I
B[1] I
B[2] I
B[3] I
P[0] O
P[1] O
P[2] O
P[3] O
P[4] O
P[5] O
P[6] O
P[7] O

*D_NET *1 0.000962508
*CONN
*P A[0] I
*I *243:A I *D sky130_fd_sc_hd__dlymetal6s2s_1
*CAP
1 A[0] 0.000434871
2 *243:A 0.000434871
3 *243:A *2:9 5.50106e-05
4 *243:A *66:12 4.6318e-06
5 *243:A *74:12 3.3123e-05
*RES
1 A[0] *243:A 47.3214 
*END

*D_NET *2 0.00160548
*CONN
*P A[1] I
*I *244:A I *D sky130_fd_sc_hd__clkbuf_2
*CAP
1 A[1] 0.00048242
2 *244:A 0
3 *2:9 0.00048242
4 *2:9 P[0] 0
5 *2:9 *66:12 0.00010018
6 *2:9 *66:26 0.000128723
7 *2:9 *74:12 0.000356724
8 *243:A *2:9 5.50106e-05
*RES
1 A[1] *2:9 27.3043 
2 *2:9 *244:A 23 
*END

*D_NET *3 0.000555919
*CONN
*P A[2] I
*I *245:A I *D sky130_fd_sc_hd__dlymetal6s2s_1
*CAP
1 A[2] 0.000220985
2 *245:A 0.000220985
3 *245:A *246:A 7.22469e-05
4 *245:A *7:15 4.17018e-05
5 *245:A *75:10 0
*RES
1 A[2] *245:A 47.7832 
*END

*D_NET *4 0.00159698
*CONN
*P A[3] I
*I *246:A I *D sky130_fd_sc_hd__buf_1
*CAP
1 A[3] 0.00071108
2 *246:A 0.00071108
3 *246:A P[7] 8.97484e-05
4 *246:A *80:73 1.28274e-05
5 *245:A *246:A 7.22469e-05
*RES
1 A[3] *246:A 48.7191 
*END

*D_NET *5 0.0013996
*CONN
*P B[0] I
*I *247:A I *D sky130_fd_sc_hd__dlymetal6s2s_1
*CAP
1 B[0] 0.000563829
2 *247:A 0
3 *5:11 0.000563829
4 *5:11 P[0] 0
5 *5:11 *6:13 0
6 *5:11 *74:25 5.86204e-05
7 *5:11 *74:36 6.48142e-05
8 *5:11 *74:55 0.000102629
9 *5:11 *74:63 2.58308e-05
10 *5:11 *77:18 2.00528e-05
*RES
1 B[0] *5:11 27.2836 
2 *5:11 *247:A 23 
*END

*D_NET *6 0.00176714
*CONN
*P B[1] I
*I *248:A I *D sky130_fd_sc_hd__clkbuf_2
*CAP
1 B[1] 0.000797101
2 *248:A 0
3 *6:13 0.000797101
4 *6:13 P[1] 0
5 *6:13 *199:A 5.50106e-05
6 *6:13 *35:29 2.93845e-05
7 *6:13 *78:8 6.21241e-05
8 *6:13 *78:12 2.64151e-05
9 *5:11 *6:13 0
*RES
1 B[1] *6:13 30.37 
2 *6:13 *248:A 23 
*END

*D_NET *7 0.00110227
*CONN
*P B[2] I
*I *249:A I *D sky130_fd_sc_hd__buf_1
*CAP
1 B[2] 0.000429032
2 *249:A 0
3 *7:15 0.000429032
4 *7:15 *200:A 0
5 *7:15 *8:17 2.79122e-05
6 *7:15 *28:6 3.52383e-05
7 *7:15 *79:8 0.000139357
8 *7:15 *79:10 0
9 *245:A *7:15 4.17018e-05
*RES
1 B[2] *7:15 30.074 
2 *7:15 *249:A 23 
*END

*D_NET *8 0.000717945
*CONN
*P B[3] I
*I *250:A I *D sky130_fd_sc_hd__dlymetal6s2s_1
*CAP
1 B[3] 0.000345017
2 *250:A 0
3 *8:17 0.000345017
4 *7:15 *8:17 2.79122e-05
*RES
1 B[3] *8:17 27.5105 
2 *8:17 *250:A 23 
*END

*D_NET *9 0.00150998
*CONN
*P P[0] O
*I *258:X O *D sky130_fd_sc_hd__buf_2
*CAP
1 P[0] 0.000554089
2 *258:X 0.000139055
3 *9:12 0.000693144
4 P[0] *66:32 2.472e-05
5 *9:12 *24:38 5.56336e-05
6 *9:12 *66:32 4.334e-05
7 *2:9 P[0] 0
8 *5:11 P[0] 0
*RES
1 *258:X *9:12 40.4443 
2 *9:12 P[0] 13.1743 
*END

*D_NET *10 0.00193526
*CONN
*P P[1] O
*I *251:X O *D sky130_fd_sc_hd__buf_2
*CAP
1 P[1] 0.000500436
2 *251:X 0.000244025
3 *10:8 0.000744462
4 P[1] *20:54 0
5 P[1] *74:44 2.96051e-05
6 *10:8 *191:A2 2.45549e-06
7 *10:8 *192:B 0.000111308
8 *10:8 *251:A 3.22879e-05
9 *10:8 *20:6 9.84851e-05
10 *10:8 *20:54 0.000172197
11 *6:13 P[1] 0
*RES
1 *251:X *10:8 44.3386 
2 *10:8 P[1] 9.40429 
*END

*D_NET *11 0.000536269
*CONN
*P P[2] O
*I *252:X O *D sky130_fd_sc_hd__buf_2
*CAP
1 P[2] 0.000268134
2 *252:X 0.000268134
*RES
1 *252:X P[2] 47.5169 
*END

*D_NET *12 0.000602803
*CONN
*P P[3] O
*I *253:X O *D sky130_fd_sc_hd__buf_2
*CAP
1 P[3] 0.000257256
2 *253:X 0.000257256
3 P[3] P[4] 7.84252e-05
4 P[3] *49:10 0
5 P[3] *69:8 9.86551e-06
*RES
1 *253:X P[3] 47.2507 
*END

*D_NET *13 0.000528546
*CONN
*P P[4] O
*I *254:X O *D sky130_fd_sc_hd__buf_2
*CAP
1 P[4] 0.000225061
2 *254:X 0.000225061
3 P[4] *49:10 0
4 P[3] P[4] 7.84252e-05
*RES
1 *254:X P[4] 47.1648 
*END

*D_NET *14 0.00100219
*CONN
*P P[5] O
*I *255:X O *D sky130_fd_sc_hd__buf_2
*CAP
1 P[5] 0.000501094
2 *255:X 0.000501094
*RES
1 *255:X P[5] 48.9786 
*END

*D_NET *15 0.00100219
*CONN
*P P[6] O
*I *256:X O *D sky130_fd_sc_hd__buf_2
*CAP
1 P[6] 0.000501094
2 *256:X 0.000501094
*RES
1 *256:X P[6] 48.9786 
*END

*D_NET *16 0.000675095
*CONN
*P P[7] O
*I *257:X O *D sky130_fd_sc_hd__buf_2
*CAP
1 P[7] 0.000271003
2 *257:X 0.000271003
3 P[7] *73:10 4.334e-05
4 *246:A P[7] 8.97484e-05
*RES
1 *257:X P[7] 48.5734 
*END

*D_NET *19 0.000648937
*CONN
*I *189:B I *D sky130_fd_sc_hd__and2_1
*I *188:X O *D sky130_fd_sc_hd__a21bo_1
*CAP
1 *189:B 0
2 *188:X 0.00025302
3 *19:10 0.00025302
4 *19:10 *188:A1 7.84839e-05
5 *19:10 *189:A 1.14452e-05
6 *19:10 *66:12 0
7 *19:10 *66:26 5.29672e-05
*RES
1 *188:X *19:10 42.3086 
2 *19:10 *189:B 38 
*END

*D_NET *20 0.0034004
*CONN
*I *192:A I *D sky130_fd_sc_hd__and2_1
*I *209:A I *D sky130_fd_sc_hd__or3_1
*I *196:C I *D sky130_fd_sc_hd__and4_1
*I *212:B1 I *D sky130_fd_sc_hd__o21ai_1
*I *197:A3 I *D sky130_fd_sc_hd__a31o_1
*I *190:Y O *D sky130_fd_sc_hd__nand4_2
*CAP
1 *192:A 0
2 *209:A 0.000128018
3 *196:C 0
4 *212:B1 0
5 *197:A3 0
6 *190:Y 0.000353642
7 *20:54 0.000177539
8 *20:27 0.000178136
9 *20:21 0.000288568
10 *20:12 0.000110432
11 *20:10 0.00024379
12 *20:6 0.000646953
13 *209:A *26:8 6.58373e-05
14 *209:A *36:12 0.000135557
15 *209:A *78:8 0
16 *20:6 *191:A1 2.32101e-05
17 *20:6 *191:A2 2.80924e-06
18 *20:6 *74:44 0.000313181
19 *20:10 *196:A 4.77554e-05
20 *20:10 *197:A1 7.37814e-06
21 *20:10 *78:36 6.12496e-06
22 *20:21 *196:A 0.000103647
23 *20:21 *196:B 0.000272383
24 *20:21 *196:D 2.4754e-05
25 *20:27 *25:10 0
26 *20:27 *26:8 0
27 P[1] *20:54 0
28 *10:8 *20:6 9.84851e-05
29 *10:8 *20:54 0.000172197
*RES
1 *190:Y *20:6 28.3857 
2 *20:6 *20:10 16.9057 
3 *20:10 *20:12 15 
4 *20:12 *197:A3 23 
5 *20:12 *20:21 3.97714 
6 *20:21 *20:27 32.9621 
7 *20:27 *212:B1 23 
8 *20:21 *196:C 23 
9 *20:10 *209:A 40.9621 
10 *20:6 *20:54 32.9 
11 *20:54 *192:A 23 
*END

*D_NET *21 0.000468485
*CONN
*I *192:B I *D sky130_fd_sc_hd__and2_1
*I *191:X O *D sky130_fd_sc_hd__a22o_1
*CAP
1 *192:B 0.000168463
2 *191:X 0.000168463
3 *192:B *191:A2 2.02517e-05
4 *10:8 *192:B 0.000111308
*RES
1 *191:X *192:B 49.9979 
*END

*D_NET *22 0.00178033
*CONN
*I *220:A1 I *D sky130_fd_sc_hd__a21o_1
*I *203:A I *D sky130_fd_sc_hd__or4b_2
*I *193:X O *D sky130_fd_sc_hd__and2_1
*CAP
1 *220:A1 0.000355986
2 *203:A 0.000283113
3 *193:X 0
4 *22:4 0.000639099
5 *203:A *193:A 0.000146822
6 *203:A *203:B 1.3523e-05
7 *203:A *203:C 2.7142e-05
8 *203:A *29:14 4.00259e-06
9 *220:A1 *220:A2 0.000310647
*RES
1 *193:X *22:4 23 
2 *22:4 *203:A 28.3029 
3 *22:4 *220:A1 30.3121 
*END

*D_NET *23 0.00453
*CONN
*I *199:A I *D sky130_fd_sc_hd__xnor2_1
*I *204:B2 I *D sky130_fd_sc_hd__a2bb2o_1
*I *194:Y O *D sky130_fd_sc_hd__nand2_1
*CAP
1 *199:A 0.000978745
2 *204:B2 0
3 *194:Y 0
4 *23:12 0.000485467
5 *23:4 0.00146421
6 *199:A *198:B 0.000165032
7 *199:A *199:B 0.00010018
8 *199:A *212:A1 0.000266265
9 *199:A *212:A2 1.76557e-05
10 *199:A *35:29 0.000145228
11 *199:A *77:40 6.17437e-06
12 *23:12 *188:A1 4.43717e-05
13 *23:12 *24:14 2.35393e-05
14 *23:12 *30:10 0.000138727
15 *23:12 *76:60 0.000214862
16 *23:12 *77:40 2.39934e-05
17 *23:12 *77:48 0.000376995
18 *23:12 *78:74 2.35393e-05
19 *6:13 *199:A 5.50106e-05
*RES
1 *194:Y *23:4 23 
2 *23:4 *23:12 38.5757 
3 *23:12 *204:B2 23 
4 *23:4 *199:A 39.385 
*END

*D_NET *24 0.0059201
*CONN
*I *196:D I *D sky130_fd_sc_hd__and4_1
*I *197:B1 I *D sky130_fd_sc_hd__a31o_1
*I *204:A1_N I *D sky130_fd_sc_hd__a2bb2o_1
*I *203:B I *D sky130_fd_sc_hd__or4b_2
*I *195:X O *D sky130_fd_sc_hd__and2_1
*CAP
1 *196:D 0.000255252
2 *197:B1 0
3 *204:A1_N 7.13329e-05
4 *203:B 0.000328939
5 *195:X 0.000235583
6 *24:38 0.000602127
7 *24:14 0.000726648
8 *24:6 0.000908833
9 *196:D *196:B 0.000329295
10 *196:D *36:8 0.00010018
11 *196:D *74:76 2.91055e-05
12 *203:B *203:C 2.79575e-05
13 *203:B *203:D_N 0.000231389
14 *203:B *204:A2_N 9.03364e-06
15 *204:A1_N *203:D_N 0.000100069
16 *204:A1_N *204:A2_N 5.79559e-05
17 *204:A1_N *76:60 5.24393e-05
18 *24:6 *80:16 0.000313249
19 *24:6 *80:31 0.000125213
20 *24:14 *188:A1 1.69668e-05
21 *24:14 *66:32 6.16531e-05
22 *24:14 *76:60 0.000165593
23 *24:14 *80:31 8.21643e-05
24 *24:38 *36:8 0.00015281
25 *24:38 *74:63 0.000138321
26 *24:38 *74:76 0.000506701
27 *24:38 *77:8 2.93335e-05
28 *24:38 *80:31 0.000144501
29 *203:A *203:B 1.3523e-05
30 *9:12 *24:38 5.56336e-05
31 *20:21 *196:D 2.4754e-05
32 *23:12 *24:14 2.35393e-05
*RES
1 *195:X *24:6 27.9093 
2 *24:6 *24:14 21.1936 
3 *24:14 *203:B 42.4329 
4 *24:14 *204:A1_N 39.9471 
5 *24:6 *24:38 9.69429 
6 *24:38 *197:B1 23 
7 *24:38 *196:D 29.235 
*END

*D_NET *25 0.000864043
*CONN
*I *220:B1 I *D sky130_fd_sc_hd__a21o_1
*I *198:A_N I *D sky130_fd_sc_hd__and2b_1
*I *196:X O *D sky130_fd_sc_hd__and4_1
*CAP
1 *220:B1 0.000236166
2 *198:A_N 0
3 *196:X 0.000195855
4 *25:10 0.000432021
5 *220:B1 *220:A2 0
6 *220:B1 *40:8 0
7 *20:27 *25:10 0
*RES
1 *196:X *25:10 40.8793 
2 *25:10 *198:A_N 38 
3 *25:10 *220:B1 41.5836 
*END

*D_NET *26 0.00224542
*CONN
*I *220:A2 I *D sky130_fd_sc_hd__a21o_1
*I *198:B I *D sky130_fd_sc_hd__and2b_1
*I *197:X O *D sky130_fd_sc_hd__a31o_1
*CAP
1 *220:A2 0.000262701
2 *198:B 0.000281996
3 *197:X 0.000153019
4 *26:8 0.000697717
5 *198:B *212:A2 0.00014196
6 *220:A2 *37:8 0.000166513
7 *220:A2 *78:66 0
8 *26:8 *78:66 0
9 *199:A *198:B 0.000165032
10 *209:A *26:8 6.58373e-05
11 *220:A1 *220:A2 0.000310647
12 *220:B1 *220:A2 0
13 *20:27 *26:8 0
*RES
1 *197:X *26:8 40.61 
2 *26:8 *198:B 43.8621 
3 *26:8 *220:A2 44.09 
*END

*D_NET *27 0.000174545
*CONN
*I *199:B I *D sky130_fd_sc_hd__xnor2_1
*I *198:X O *D sky130_fd_sc_hd__and2b_1
*CAP
1 *199:B 3.71825e-05
2 *198:X 3.71825e-05
3 *199:A *199:B 0.00010018
*RES
1 *198:X *199:B 47.0979 
*END

*D_NET *28 0.00386325
*CONN
*I *205:B1_N I *D sky130_fd_sc_hd__a21bo_1
*I *206:A_N I *D sky130_fd_sc_hd__nand3b_2
*I *234:C I *D sky130_fd_sc_hd__and3_1
*I *239:A1 I *D sky130_fd_sc_hd__a21oi_1
*I *200:Y O *D sky130_fd_sc_hd__nand2_1
*CAP
1 *205:B1_N 0
2 *206:A_N 0
3 *234:C 0.00016115
4 *239:A1 0
5 *200:Y 0.000224107
6 *28:42 0.000167548
7 *28:34 0.000791694
8 *28:12 0.000332337
9 *28:6 0.00101944
10 *234:C *234:A 0.000145975
11 *28:6 *75:49 8.08139e-06
12 *28:6 *79:8 2.65879e-05
13 *28:12 *236:B 1.14452e-05
14 *28:12 *61:10 0.00037506
15 *28:12 *64:8 2.68867e-05
16 *28:12 *80:73 0.000101753
17 *28:34 *225:C 0.000140259
18 *28:34 *75:49 1.08858e-05
19 *28:34 *75:62 0.000184734
20 *28:42 *55:10 0.000100069
21 *7:15 *28:6 3.52383e-05
*RES
1 *200:Y *28:6 26.0036 
2 *28:6 *28:12 35.075 
3 *28:12 *239:A1 23 
4 *28:12 *234:C 26.335 
5 *28:6 *28:34 11.2893 
6 *28:34 *28:42 33.0036 
7 *28:42 *206:A_N 23 
8 *28:34 *205:B1_N 23 
*END

*D_NET *29 0.00154989
*CONN
*I *203:C I *D sky130_fd_sc_hd__or4b_2
*I *204:A2_N I *D sky130_fd_sc_hd__a2bb2o_1
*I *201:Y O *D sky130_fd_sc_hd__nand2_1
*CAP
1 *203:C 0.000136068
2 *204:A2_N 9.37762e-05
3 *201:Y 0.000269249
4 *29:14 0.000242896
5 *29:10 0.000282301
6 *203:C *193:A 5.56356e-05
7 *203:C *32:10 1.32314e-05
8 *204:A2_N *203:D_N 7.65232e-05
9 *204:A2_N *32:10 0.000101762
10 *29:10 *193:A 5.94908e-05
11 *29:10 *35:29 8.16279e-05
12 *29:10 *75:83 0
13 *29:10 *76:60 0
14 *29:14 *203:D_N 1.12349e-05
15 *203:A *203:C 2.7142e-05
16 *203:A *29:14 4.00259e-06
17 *203:B *203:C 2.79575e-05
18 *203:B *204:A2_N 9.03364e-06
19 *204:A1_N *204:A2_N 5.79559e-05
*RES
1 *201:Y *29:10 41.8321 
2 *29:10 *29:14 15.4971 
3 *29:14 *204:A2_N 26.1693 
4 *29:14 *203:C 26.1693 
*END

*D_NET *30 0.00179445
*CONN
*I *204:B1 I *D sky130_fd_sc_hd__a2bb2o_1
*I *203:D_N I *D sky130_fd_sc_hd__or4b_2
*I *202:X O *D sky130_fd_sc_hd__and2_1
*CAP
1 *204:B1 0
2 *203:D_N 0.000215118
3 *202:X 0.000242609
4 *30:12 0.000215118
5 *30:10 0.000242609
6 *203:D_N *76:60 4.67488e-05
7 *30:10 *35:29 0.000118748
8 *30:10 *78:72 3.92407e-05
9 *30:10 *78:74 0.000116314
10 *203:B *203:D_N 0.000231389
11 *204:A1_N *203:D_N 0.000100069
12 *204:A2_N *203:D_N 7.65232e-05
13 *23:12 *30:10 0.000138727
14 *29:14 *203:D_N 1.12349e-05
*RES
1 *202:X *30:10 41.9564 
2 *30:10 *30:12 15 
3 *30:12 *203:D_N 28.3029 
4 *30:12 *204:B1 23 
*END

*D_NET *31 0.00364169
*CONN
*I *230:A1 I *D sky130_fd_sc_hd__a21o_1
*I *229:A I *D sky130_fd_sc_hd__and3_1
*I *206:B I *D sky130_fd_sc_hd__nand3b_2
*I *205:A1 I *D sky130_fd_sc_hd__a21bo_1
*I *203:X O *D sky130_fd_sc_hd__or4b_2
*CAP
1 *230:A1 0.000314748
2 *229:A 0.00014735
3 *206:B 0
4 *205:A1 6.9538e-05
5 *203:X 0.000202467
6 *31:28 0.000633781
7 *31:19 0.000279754
8 *31:8 0.000380076
9 *205:A1 *75:62 3.02824e-05
10 *229:A *229:C 1.95448e-05
11 *229:A *56:6 2.46906e-05
12 *229:A *56:14 3.22051e-05
13 *229:A *58:10 0.000316342
14 *230:A1 *229:C 0
15 *230:A1 *230:A2 9.91024e-05
16 *230:A1 *230:B1 2.46906e-05
17 *230:A1 *231:B 0.000186025
18 *230:A1 *55:10 0
19 *230:A1 *55:25 0
20 *230:A1 *56:14 0.00014411
21 *230:A1 *57:10 0.000167443
22 *31:8 *206:C 3.70094e-05
23 *31:8 *32:10 0.000348456
24 *31:8 *75:62 2.54046e-05
25 *31:8 *75:73 0
26 *31:19 *206:C 9.47892e-05
27 *31:19 *216:B 0
28 *31:19 *33:10 0
29 *31:28 *216:B 0
30 *31:28 *231:B 6.38845e-05
31 *31:28 *55:10 0
*RES
1 *203:X *31:8 43.075 
2 *31:8 *205:A1 39.0979 
3 *31:8 *31:19 2.61 
4 *31:19 *206:B 38 
5 *31:19 *31:28 3.31429 
6 *31:28 *229:A 41.9771 
7 *31:28 *230:A1 45.7057 
*END

*D_NET *32 0.00146669
*CONN
*I *206:C I *D sky130_fd_sc_hd__nand3b_2
*I *205:A2 I *D sky130_fd_sc_hd__a21bo_1
*I *204:X O *D sky130_fd_sc_hd__a2bb2o_1
*CAP
1 *206:C 0.000166022
2 *205:A2 0
3 *204:X 0.000269698
4 *32:10 0.00043572
5 *32:10 *78:72 0
6 *203:C *32:10 1.32314e-05
7 *204:A2_N *32:10 0.000101762
8 *31:8 *206:C 3.70094e-05
9 *31:8 *32:10 0.000348456
10 *31:19 *206:C 9.47892e-05
*RES
1 *204:X *32:10 43.8207 
2 *32:10 *205:A2 38 
3 *32:10 *206:C 41.7286 
*END

*D_NET *33 0.00184001
*CONN
*I *217:A1 I *D sky130_fd_sc_hd__a21oi_1
*I *215:A I *D sky130_fd_sc_hd__and3_1
*I *216:A I *D sky130_fd_sc_hd__nand3_1
*I *205:X O *D sky130_fd_sc_hd__a21bo_1
*CAP
1 *217:A1 4.59006e-05
2 *215:A 0
3 *216:A 0
4 *205:X 0.000457828
5 *33:21 0.000121179
6 *33:12 7.52788e-05
7 *33:10 0.000457828
8 *217:A1 *216:C 0.000112467
9 *217:A1 *217:A2 0.000143655
10 *217:A1 *34:43 2.9938e-05
11 *217:A1 *42:14 0.000174843
12 *33:10 *216:B 1.19796e-05
13 *33:10 *75:62 8.38425e-06
14 *33:21 *216:B 5.50106e-05
15 *33:21 *216:C 3.61695e-05
16 *33:21 *217:A2 5.90675e-06
17 *33:21 *34:43 0.000103647
18 *31:19 *33:10 0
*RES
1 *205:X *33:10 44.3386 
2 *33:10 *33:12 15 
3 *33:12 *216:A 23 
4 *33:12 *33:21 2.54786 
5 *33:21 *215:A 23 
6 *33:21 *217:A1 26.0036 
*END

*D_NET *34 0.00400869
*CONN
*I *215:B I *D sky130_fd_sc_hd__and3_1
*I *217:A2 I *D sky130_fd_sc_hd__a21oi_1
*I *230:A2 I *D sky130_fd_sc_hd__a21o_1
*I *229:B I *D sky130_fd_sc_hd__and3_1
*I *216:B I *D sky130_fd_sc_hd__nand3_1
*I *206:Y O *D sky130_fd_sc_hd__nand3b_2
*CAP
1 *215:B 2.34823e-05
2 *217:A2 8.40558e-05
3 *230:A2 0.000410739
4 *229:B 8.4123e-05
5 *216:B 0.000161654
6 *206:Y 0.000116618
7 *34:43 0.000297426
8 *34:21 0.000566795
9 *34:8 0.000233588
10 *34:6 0.000306506
11 *216:B *55:10 1.46784e-05
12 *229:B *58:10 5.11621e-05
13 *230:A2 *230:B1 0.000581807
14 *230:A2 *44:8 1.69668e-05
15 *230:A2 *55:10 3.52164e-05
16 *230:A2 *55:25 0.000177004
17 *230:A2 *58:10 0.000227469
18 *34:6 *55:10 0.000100061
19 *34:21 *44:8 2.54046e-05
20 *34:21 *55:10 4.46962e-05
21 *217:A1 *217:A2 0.000143655
22 *217:A1 *34:43 2.9938e-05
23 *230:A1 *230:A2 9.91024e-05
24 *31:19 *216:B 0
25 *31:28 *216:B 0
26 *33:10 *216:B 1.19796e-05
27 *33:21 *216:B 5.50106e-05
28 *33:21 *217:A2 5.90675e-06
29 *33:21 *34:43 0.000103647
*RES
1 *206:Y *34:6 25.0507 
2 *34:6 *34:8 15 
3 *34:8 *216:B 41.2521 
4 *34:8 *34:21 1.55357 
5 *34:21 *229:B 39.0979 
6 *34:21 *230:A2 49.2686 
7 *34:6 *34:43 4.43286 
8 *34:43 *217:A2 25.4236 
9 *34:43 *215:B 23.4971 
*END

*D_NET *35 0.00539953
*CONN
*I *226:A I *D sky130_fd_sc_hd__xnor2_1
*I *209:B I *D sky130_fd_sc_hd__or3_1
*I *212:A1 I *D sky130_fd_sc_hd__o21ai_1
*I *235:A1 I *D sky130_fd_sc_hd__a21oi_1
*I *207:X O *D sky130_fd_sc_hd__and4_1
*CAP
1 *226:A 0.000101831
2 *209:B 7.25743e-05
3 *212:A1 0.000130719
4 *235:A1 0.0001561
5 *207:X 0.000303135
6 *35:29 0.000925044
7 *35:21 0.000888426
8 *35:10 0.000524079
9 *209:B *212:A2 2.06369e-05
10 *212:A1 *212:A2 0.000157627
11 *226:A *38:18 0.000166522
12 *226:A *53:10 1.47563e-05
13 *226:A *54:8 0
14 *235:A1 *38:18 0.000177899
15 *35:10 *189:A 0
16 *35:10 *195:B 0.000230604
17 *35:10 *79:16 0.00010018
18 *35:21 *210:B 0
19 *35:21 *38:18 3.47781e-05
20 *35:21 *54:8 0
21 *35:29 *202:A 5.50106e-05
22 *35:29 *38:18 5.3304e-05
23 *35:29 *75:83 0.000276214
24 *35:29 *77:40 5.87853e-05
25 *35:29 *77:48 0.000310053
26 *199:A *212:A1 0.000266265
27 *199:A *35:29 0.000145228
28 *6:13 *35:29 2.93845e-05
29 *29:10 *35:29 8.16279e-05
30 *30:10 *35:29 0.000118748
*RES
1 *207:X *35:10 43.0336 
2 *35:10 *235:A1 41.48 
3 *35:10 *35:21 1.20143 
4 *35:21 *35:29 31.9857 
5 *35:29 *212:A1 27.35 
6 *35:29 *209:B 24.4707 
7 *35:21 *226:A 40.61 
*END

*D_NET *36 0.0028381
*CONN
*I *212:A2 I *D sky130_fd_sc_hd__o21ai_1
*I *209:C I *D sky130_fd_sc_hd__or3_1
*I *208:Y O *D sky130_fd_sc_hd__nand2_1
*CAP
1 *212:A2 0.000120059
2 *209:C 0
3 *208:Y 0.000768693
4 *36:12 0.000222958
5 *36:8 0.000871592
6 *36:8 *258:A 5.50049e-05
7 *36:8 *77:8 2.93431e-05
8 *36:8 *80:31 4.40271e-05
9 *36:12 *78:8 0
10 *36:12 *78:66 0
11 *196:D *36:8 0.00010018
12 *198:B *212:A2 0.00014196
13 *199:A *212:A2 1.76557e-05
14 *209:A *36:12 0.000135557
15 *209:B *212:A2 2.06369e-05
16 *212:A1 *212:A2 0.000157627
17 *24:38 *36:8 0.00015281
*RES
1 *208:Y *36:8 48.6264 
2 *36:8 *36:12 16.9057 
3 *36:12 *209:C 23 
4 *36:12 *212:A2 27.1636 
*END

*D_NET *37 0.00197401
*CONN
*I *219:A1 I *D sky130_fd_sc_hd__a21o_1
*I *213:A I *D sky130_fd_sc_hd__nand3_1
*I *214:B1_N I *D sky130_fd_sc_hd__a21bo_1
*I *209:X O *D sky130_fd_sc_hd__or3_1
*CAP
1 *219:A1 3.60485e-05
2 *213:A 0
3 *214:B1_N 7.63424e-05
4 *209:X 0.00016333
5 *37:25 0.000178544
6 *37:19 0.000414581
7 *37:10 0.000276331
8 *37:8 0.00016333
9 *214:B1_N *39:8 3.71251e-05
10 *219:A1 *219:A2 6.17437e-06
11 *219:A1 *219:B1 1.5769e-05
12 *37:8 *40:8 9.32509e-05
13 *37:8 *78:66 0
14 *37:19 *219:A2 7.59794e-05
15 *37:19 *39:8 3.71369e-05
16 *37:19 *39:15 1.03836e-05
17 *37:25 *213:C 6.7177e-06
18 *37:25 *221:C 0
19 *37:25 *39:23 2.70469e-05
20 *37:25 *40:8 1.97329e-05
21 *37:25 *42:8 0.000169674
22 *37:25 *48:10 0
23 *37:25 *49:10 0
24 *220:A2 *37:8 0.000166513
*RES
1 *209:X *37:8 42.0186 
2 *37:8 *37:10 15 
3 *37:10 *214:B1_N 24.0979 
4 *37:10 *37:19 3.00357 
5 *37:19 *37:25 34.0186 
6 *37:25 *213:A 23 
7 *37:19 *219:A1 23.6214 
*END

*D_NET *38 0.00282829
*CONN
*I *211:A_N I *D sky130_fd_sc_hd__and3b_1
*I *226:B I *D sky130_fd_sc_hd__xnor2_1
*I *235:A2 I *D sky130_fd_sc_hd__a21oi_1
*I *210:X O *D sky130_fd_sc_hd__and4_1
*CAP
1 *211:A_N 0
2 *226:B 0
3 *235:A2 0
4 *210:X 0
5 *38:36 0.000455456
6 *38:18 0.000311947
7 *38:8 0.00042068
8 *38:4 0.000564189
9 *38:8 *53:10 1.59094e-05
10 *38:8 *75:35 9.91798e-05
11 *38:18 *210:B 0
12 *38:18 *53:10 6.48142e-05
13 *38:18 *61:8 2.93747e-05
14 *38:36 *210:B 3.0647e-05
15 *38:36 *228:B 1.19796e-05
16 *38:36 *53:10 4.66036e-05
17 *38:36 *76:47 9.61325e-05
18 *38:36 *78:72 0.000248877
19 *226:A *38:18 0.000166522
20 *235:A1 *38:18 0.000177899
21 *35:21 *38:18 3.47781e-05
22 *35:29 *38:18 5.3304e-05
*RES
1 *210:X *38:4 23 
2 *38:4 *38:8 2.54786 
3 *38:8 *38:18 37.54 
4 *38:18 *235:A2 23 
5 *38:8 *226:B 23 
6 *38:4 *38:36 40.3779 
7 *38:36 *211:A_N 23 
*END

*D_NET *39 0.00211956
*CONN
*I *219:B1 I *D sky130_fd_sc_hd__a21o_1
*I *213:B I *D sky130_fd_sc_hd__nand3_1
*I *214:A1 I *D sky130_fd_sc_hd__a21bo_1
*I *211:X O *D sky130_fd_sc_hd__and3b_1
*CAP
1 *219:B1 0.000141801
2 *213:B 0
3 *214:A1 0
4 *211:X 0.000336968
5 *39:23 0.000115311
6 *39:15 0.000313405
7 *39:8 0.000393262
8 *219:B1 *219:A2 8.52481e-05
9 *219:B1 *241:A2 1.37232e-05
10 *39:8 *75:73 7.87782e-05
11 *39:8 *78:66 6.36422e-05
12 *39:15 *219:A2 5.50106e-05
13 *39:23 *213:C 0.000225275
14 *39:23 *42:8 0.000169674
15 *214:B1_N *39:8 3.71251e-05
16 *219:A1 *219:B1 1.5769e-05
17 *37:19 *39:8 3.71369e-05
18 *37:19 *39:15 1.03836e-05
19 *37:25 *39:23 2.70469e-05
*RES
1 *211:X *39:8 30.3121 
2 *39:8 *214:A1 23 
3 *39:8 *39:15 1.09786 
4 *39:15 *39:23 33.5836 
5 *39:23 *213:B 23 
6 *39:15 *219:B1 26.0243 
*END

*D_NET *40 0.00138667
*CONN
*I *213:C I *D sky130_fd_sc_hd__nand3_1
*I *219:A2 I *D sky130_fd_sc_hd__a21o_1
*I *214:A2 I *D sky130_fd_sc_hd__a21bo_1
*I *212:Y O *D sky130_fd_sc_hd__o21ai_1
*CAP
1 *213:C 0.000130095
2 *219:A2 4.42911e-05
3 *214:A2 0
4 *212:Y 0.000235256
5 *40:10 4.42911e-05
6 *40:8 0.000365351
7 *219:A1 *219:A2 6.17437e-06
8 *219:B1 *219:A2 8.52481e-05
9 *220:B1 *40:8 0
10 *37:8 *40:8 9.32509e-05
11 *37:19 *219:A2 7.59794e-05
12 *37:25 *213:C 6.7177e-06
13 *37:25 *40:8 1.97329e-05
14 *39:15 *219:A2 5.50106e-05
15 *39:23 *213:C 0.000225275
*RES
1 *212:Y *40:8 42.7229 
2 *40:8 *40:10 15 
3 *40:10 *214:A2 23 
4 *40:10 *219:A2 24.5743 
5 *40:8 *213:C 41.3143 
*END

*D_NET *41 0.00192868
*CONN
*I *221:A I *D sky130_fd_sc_hd__nand3_2
*I *241:A1 I *D sky130_fd_sc_hd__a21o_1
*I *213:Y O *D sky130_fd_sc_hd__nand3_1
*CAP
1 *221:A 5.19164e-05
2 *241:A1 0.000270909
3 *213:Y 0.000470546
4 *41:8 0.000793371
5 *221:A *47:21 0
6 *221:A *65:10 2.89463e-05
7 *241:A1 *221:C 0
8 *241:A1 *241:A2 3.91386e-05
9 *241:A1 *47:21 5.25848e-05
10 *241:A1 *65:10 7.7048e-05
11 *41:8 *242:A 7.1349e-05
12 *41:8 *49:10 7.28721e-05
*RES
1 *213:Y *41:8 44.3386 
2 *41:8 *241:A1 43.4064 
3 *41:8 *221:A 39.2014 
*END

*D_NET *42 0.00169086
*CONN
*I *217:B1 I *D sky130_fd_sc_hd__a21oi_1
*I *215:C I *D sky130_fd_sc_hd__and3_1
*I *216:C I *D sky130_fd_sc_hd__nand3_1
*I *214:X O *D sky130_fd_sc_hd__a21bo_1
*CAP
1 *217:B1 0
2 *215:C 0
3 *216:C 0.000118769
4 *214:X 0.000191596
5 *42:14 0.000321975
6 *42:10 0.000203206
7 *42:8 0.000191596
8 *42:8 *49:10 0
9 *42:14 *45:10 8.91468e-07
10 *217:A1 *216:C 0.000112467
11 *217:A1 *42:14 0.000174843
12 *33:21 *216:C 3.61695e-05
13 *37:25 *42:8 0.000169674
14 *39:23 *42:8 0.000169674
*RES
1 *214:X *42:8 42.3707 
2 *42:8 *42:10 15 
3 *42:10 *42:14 3.36607 
4 *42:14 *216:C 25.2061 
5 *42:14 *215:C 23 
6 *42:10 *217:B1 23 
*END

*D_NET *43 0.000484044
*CONN
*I *218:A I *D sky130_fd_sc_hd__nor2_1
*I *215:X O *D sky130_fd_sc_hd__and3_1
*CAP
1 *218:A 0.000119361
2 *215:X 0.000122661
3 *43:8 0.000242022
4 *43:8 *44:8 0
5 *43:8 *45:10 0
*RES
1 *215:X *43:8 40.2579 
2 *43:8 *218:A 40.0507 
*END

*D_NET *44 0.00167973
*CONN
*I *232:B1 I *D sky130_fd_sc_hd__o21a_1
*I *237:B2 I *D sky130_fd_sc_hd__o221ai_4
*I *216:Y O *D sky130_fd_sc_hd__nand3_1
*CAP
1 *232:B1 0.000178209
2 *237:B2 0.000234044
3 *216:Y 0.000191848
4 *44:10 0.000412253
5 *44:8 0.000191848
6 *232:B1 *237:A1 8.57986e-05
7 *232:B1 *59:10 4.97789e-05
8 *237:B2 *237:A2 9.5877e-05
9 *237:B2 *59:10 2.45549e-06
10 *44:8 *58:10 0.000195248
11 *230:A2 *44:8 1.69668e-05
12 *34:21 *44:8 2.54046e-05
13 *43:8 *44:8 0
*RES
1 *216:Y *44:8 42.3707 
2 *44:8 *44:10 15 
3 *44:10 *237:B2 26.5007 
4 *44:10 *232:B1 26.9771 
*END

*D_NET *45 0.00106112
*CONN
*I *232:A1 I *D sky130_fd_sc_hd__o21a_1
*I *218:B I *D sky130_fd_sc_hd__nor2_1
*I *217:Y O *D sky130_fd_sc_hd__a21oi_1
*CAP
1 *232:A1 0.000216415
2 *218:B 0
3 *217:Y 0.000220986
4 *45:10 0.000437401
5 *232:A1 *49:23 0.000185428
6 *45:10 *49:10 0
7 *45:10 *49:23 0
8 *42:14 *45:10 8.91468e-07
9 *43:8 *45:10 0
*RES
1 *217:Y *45:10 41.3557 
2 *45:10 *218:B 38 
3 *45:10 *232:A1 42.6607 
*END

*D_NET *46 0.000529688
*CONN
*I *222:A I *D sky130_fd_sc_hd__xnor2_1
*I *218:Y O *D sky130_fd_sc_hd__nor2_1
*CAP
1 *222:A 0
2 *218:Y 0.000264844
3 *46:8 0.000264844
4 *46:8 *254:A 0
*RES
1 *218:Y *46:8 27.3293 
2 *46:8 *222:A 23 
*END

*D_NET *47 0.000889697
*CONN
*I *221:B I *D sky130_fd_sc_hd__nand3_2
*I *241:A2 I *D sky130_fd_sc_hd__a21o_1
*I *219:X O *D sky130_fd_sc_hd__a21o_1
*CAP
1 *221:B 0
2 *241:A2 4.2203e-05
3 *219:X 4.64022e-05
4 *47:21 0.000221839
5 *47:6 0.000310444
6 *47:21 *221:C 0.000163361
7 *219:B1 *241:A2 1.37232e-05
8 *221:A *47:21 0
9 *241:A1 *241:A2 3.91386e-05
10 *241:A1 *47:21 5.25848e-05
*RES
1 *219:X *47:6 23.6214 
2 *47:6 *241:A2 24.2014 
3 *47:6 *47:21 33.8321 
4 *47:21 *221:B 23 
*END

*D_NET *48 0.00116996
*CONN
*I *241:B1 I *D sky130_fd_sc_hd__a21o_1
*I *221:C I *D sky130_fd_sc_hd__nand3_2
*I *220:X O *D sky130_fd_sc_hd__a21o_1
*CAP
1 *241:B1 0
2 *221:C 0.000215713
3 *220:X 0.000269076
4 *48:10 0.000484789
5 *221:C *49:10 3.70187e-05
6 *241:A1 *221:C 0
7 *37:25 *221:C 0
8 *37:25 *48:10 0
9 *47:21 *221:C 0.000163361
*RES
1 *220:X *48:10 41.9564 
2 *48:10 *221:C 41.9357 
3 *48:10 *241:B1 38 
*END

*D_NET *49 0.00257328
*CONN
*I *242:A I *D sky130_fd_sc_hd__and2_1
*I *232:A2 I *D sky130_fd_sc_hd__o21a_1
*I *237:A1 I *D sky130_fd_sc_hd__o221ai_4
*I *222:B I *D sky130_fd_sc_hd__xnor2_1
*I *221:Y O *D sky130_fd_sc_hd__nand3_2
*CAP
1 *242:A 9.209e-05
2 *232:A2 0
3 *237:A1 0.000117809
4 *222:B 0
5 *221:Y 0
6 *49:23 0.000554774
7 *49:10 0.000834364
8 *49:4 0.000489489
9 *237:A1 *59:10 3.22879e-05
10 P[3] *49:10 0
11 P[4] *49:10 0
12 *221:C *49:10 3.70187e-05
13 *232:A1 *49:23 0.000185428
14 *232:B1 *237:A1 8.57986e-05
15 *37:25 *49:10 0
16 *41:8 *242:A 7.1349e-05
17 *41:8 *49:10 7.28721e-05
18 *42:8 *49:10 0
19 *45:10 *49:10 0
20 *45:10 *49:23 0
*RES
1 *221:Y *49:4 23 
2 *49:4 *49:10 22.3536 
3 *49:10 *222:B 38 
4 *49:10 *49:23 23.7 
5 *49:23 *237:A1 26.0243 
6 *49:23 *232:A2 23 
7 *49:4 *242:A 25.0507 
*END

*D_NET *50 0.000206432
*CONN
*I *239:B1 I *D sky130_fd_sc_hd__a21oi_1
*I *223:Y O *D sky130_fd_sc_hd__nand2_1
*CAP
1 *239:B1 6.46013e-05
2 *223:Y 6.46013e-05
3 *239:B1 *234:A 4.97504e-05
4 *239:B1 *234:B 1.14876e-05
5 *239:B1 *80:73 1.59912e-05
*RES
1 *223:Y *239:B1 47.0979 
*END

*D_NET *51 0.00125725
*CONN
*I *227:A_N I *D sky130_fd_sc_hd__and4bb_1
*I *225:A_N I *D sky130_fd_sc_hd__and3b_1
*I *224:X O *D sky130_fd_sc_hd__and4_1
*CAP
1 *227:A_N 0.000180488
2 *225:A_N 0
3 *224:X 0.000116379
4 *51:12 6.99409e-05
5 *51:6 0.000366809
6 *227:A_N *224:C 4.51972e-05
7 *227:A_N *227:B_N 1.94812e-05
8 *227:A_N *76:47 8.06804e-06
9 *227:A_N *80:54 4.17736e-05
10 *51:6 *80:54 0.000228001
11 *51:12 *61:10 4.23817e-05
12 *51:12 *80:58 0.000138727
*RES
1 *224:X *51:6 25.5271 
2 *51:6 *51:12 31.9057 
3 *51:12 *225:A_N 23 
4 *51:6 *227:A_N 26.0036 