*SPEF "ieee 1481-1999"
*DESIGN "mult4_SarsaNada_e10_SARSA_RUIDO_e9_SARSA_RUIDO_e9_SARSA_RUIDO_e9"
*DATE "14:34:59 Tuesday September 16, 2025"
*VENDOR "The OpenROAD Project"
*PROGRAM "OpenROAD"
*VERSION "edf00dff99f6c40d67a30c0e22a8191c5d2ed9d6"
*DESIGN_FLOW "NAME_SCOPE LOCAL" "PIN_CAP NONE"
*DIVIDER /
*DELIMITER :
*BUS_DELIMITER []
*T_UNIT 1 NS
*C_UNIT 1 PF
*R_UNIT 1 OHM
*L_UNIT 1 HENRY

*NAME_MAP
*1 A[0]
*2 A[1]
*3 A[2]
*4 A[3]
*5 B[0]
*6 B[1]
*7 B[2]
*8 B[3]
*9 P[0]
*10 P[1]
*11 P[2]
*12 P[3]
*13 P[4]
*14 P[5]
*15 P[6]
*16 P[7]
*19 _00_
*20 _01_
*21 _02_
*22 _03_
*23 _04_
*24 _05_
*25 _06_
*26 _07_
*27 _08_
*28 _09_
*29 _10_
*30 _11_
*31 _12_
*32 _13_
*33 _14_
*34 _15_
*35 _16_
*36 _17_
*37 _18_
*38 _19_
*39 _20_
*40 _21_
*41 _22_
*42 _23_
*43 _24_
*44 mul_ll\.pp1
*45 mul_ll\.pp2
*46 net1
*47 net10
*48 net11
*49 net12
*50 net13
*51 net14
*52 net15
*53 net16
*54 net2
*55 net3
*56 net4
*57 net5
*58 net6
*59 net7
*60 net8
*61 net9
*62 FILLER_0_15
*63 FILLER_0_27
*64 FILLER_0_29
*65 FILLER_0_3
*66 FILLER_0_35
*67 FILLER_0_41
*68 FILLER_0_48
*69 FILLER_0_55
*70 FILLER_0_57
*71 FILLER_0_63
*72 FILLER_0_75
*73 FILLER_1_19
*74 FILLER_1_35
*75 FILLER_1_53
*76 FILLER_1_7
*77 FILLER_1_72
*78 FILLER_1_76
*79 FILLER_2_13
*80 FILLER_2_25
*81 FILLER_2_29
*82 FILLER_2_46
*83 FILLER_2_55
*84 FILLER_2_67
*85 FILLER_2_75
*86 FILLER_3_23
*87 FILLER_3_3
*88 FILLER_3_35
*89 FILLER_3_46
*90 FILLER_3_54
*91 FILLER_3_57
*92 FILLER_3_69
*93 FILLER_4_13
*94 FILLER_4_26
*95 FILLER_4_36
*96 FILLER_4_41
*97 FILLER_4_50
*98 FILLER_4_62
*99 FILLER_4_74
*100 FILLER_4_80
*101 FILLER_5_16
*102 FILLER_5_28
*103 FILLER_5_40
*104 FILLER_5_49
*105 FILLER_5_55
*106 FILLER_5_65
*107 FILLER_5_77
*108 FILLER_6_18
*109 FILLER_6_26
*110 FILLER_6_29
*111 FILLER_6_43
*112 FILLER_6_55
*113 FILLER_6_59
*114 FILLER_6_6
*115 FILLER_6_63
*116 FILLER_6_69
*117 FILLER_7_11
*118 FILLER_7_15
*119 FILLER_7_27
*120 FILLER_7_35
*121 FILLER_7_49
*122 FILLER_7_55
*123 FILLER_7_7
*124 FILLER_7_70
*125 FILLER_7_76
*126 FILLER_8_15
*127 FILLER_8_27
*128 FILLER_8_29
*129 FILLER_8_3
*130 FILLER_8_41
*131 FILLER_8_52
*132 FILLER_8_64
*133 FILLER_8_7
*134 FILLER_8_76
*135 FILLER_8_80
*136 FILLER_9_19
*137 FILLER_9_27
*138 FILLER_9_29
*139 FILLER_9_41
*140 FILLER_9_53
*141 FILLER_9_57
*142 FILLER_9_63
*143 FILLER_9_7
*144 FILLER_9_75
*145 PHY_EDGE_ROW_0_Left_10
*146 PHY_EDGE_ROW_0_Right_0
*147 PHY_EDGE_ROW_1_Left_11
*148 PHY_EDGE_ROW_1_Right_1
*149 PHY_EDGE_ROW_2_Left_12
*150 PHY_EDGE_ROW_2_Right_2
*151 PHY_EDGE_ROW_3_Left_13
*152 PHY_EDGE_ROW_3_Right_3
*153 PHY_EDGE_ROW_4_Left_14
*154 PHY_EDGE_ROW_4_Right_4
*155 PHY_EDGE_ROW_5_Left_15
*156 PHY_EDGE_ROW_5_Right_5
*157 PHY_EDGE_ROW_6_Left_16
*158 PHY_EDGE_ROW_6_Right_6
*159 PHY_EDGE_ROW_7_Left_17
*160 PHY_EDGE_ROW_7_Right_7
*161 PHY_EDGE_ROW_8_Left_18
*162 PHY_EDGE_ROW_8_Right_8
*163 PHY_EDGE_ROW_9_Left_19
*164 PHY_EDGE_ROW_9_Right_9
*165 TAP_TAPCELL_ROW_0_20
*166 TAP_TAPCELL_ROW_0_21
*167 TAP_TAPCELL_ROW_1_22
*168 TAP_TAPCELL_ROW_2_23
*169 TAP_TAPCELL_ROW_3_24
*170 TAP_TAPCELL_ROW_4_25
*171 TAP_TAPCELL_ROW_5_26
*172 TAP_TAPCELL_ROW_6_27
*173 TAP_TAPCELL_ROW_7_28
*174 TAP_TAPCELL_ROW_8_29
*175 TAP_TAPCELL_ROW_9_30
*176 TAP_TAPCELL_ROW_9_31
*177 _25_
*178 _26_
*179 _27_
*180 _28_
*181 _29_
*182 _30_
*183 _31_
*184 _32_
*185 _33_
*186 _34_
*187 _35_
*188 _36_
*189 _37_
*190 _38_
*191 _39_
*192 _40_
*193 _41_
*194 _42_
*195 _43_
*196 _44_
*197 _45_
*198 _46_
*199 _47_
*200 _48_
*201 _49_
*202 _50_
*203 _51_
*204 _52_
*205 _53_
*206 _54_
*207 _55_
*208 _56_
*209 _57_
*210 _58_
*211 _59_
*212 input1
*213 input2
*214 input3
*215 input4
*216 input5
*217 input6
*218 input7
*219 input8
*220 output10
*221 output11
*222 output12
*223 output13
*224 output14
*225 output15
*226 output16
*227 output9

*PORTS
A[0] I
A[1] I
A[2] I
A[3] I
B[0] I
B[1] I
B[2] I
B[3] I
P[0] O
P[1] O
P[2] O
P[3] O
P[4] O
P[5] O
P[6] O
P[7] O

*D_NET *1 0.000825514
*CONN
*P A[0] I
*I *212:A I *D sky130_fd_sc_hd__buf_1
*CAP
1 A[0] 0.000408202
2 *212:A 0.000408202
3 *212:A P[1] 0
4 *212:A *214:A 0
5 *212:A *220:A 9.11048e-06
*RES
1 A[0] *212:A 21.9607 
*END

*D_NET *2 0.000699525
*CONN
*P A[1] I
*I *213:A I *D sky130_fd_sc_hd__dlymetal6s2s_1
*CAP
1 A[1] 0.000321177
2 *213:A 0.000321177
3 *213:A *217:A 2.71788e-05
4 *213:A *219:A 2.99915e-05
*RES
1 A[1] *213:A 21.6946 
*END

*D_NET *3 0.000815575
*CONN
*P A[2] I
*I *214:A I *D sky130_fd_sc_hd__buf_1
*CAP
1 A[2] 0.000407788
2 *214:A 0.000407788
3 *214:A *218:A 0
4 *212:A *214:A 0
*RES
1 A[2] *214:A 21.9607 
*END

*D_NET *4 0.000531281
*CONN
*P A[3] I
*I *215:A I *D sky130_fd_sc_hd__buf_1
*CAP
1 A[3] 0.000235287
2 *215:A 0.000235287
3 *215:A P[6] 0
4 *215:A P[7] 3.19385e-05
5 *215:A *219:A 2.87684e-05
*RES
1 A[3] *215:A 18.73 
*END

*D_NET *5 0.000433157
*CONN
*P B[0] I
*I *216:A I *D sky130_fd_sc_hd__clkbuf_1
*CAP
1 B[0] 0.000178271
2 *216:A 0.000178271
3 *216:A P[2] 7.66163e-05
*RES
1 B[0] *216:A 18.1229 
*END

*D_NET *6 0.000586245
*CONN
*P B[1] I
*I *217:A I *D sky130_fd_sc_hd__dlymetal6s2s_1
*CAP
1 B[1] 0.000265944
2 *217:A 0.000265944
3 *217:A P[0] 2.71788e-05
4 *213:A *217:A 2.71788e-05
*RES
1 B[1] *217:A 20.4803 
*END

*D_NET *7 0.00085038
*CONN
*P B[2] I
*I *218:A I *D sky130_fd_sc_hd__buf_1
*CAP
1 B[2] 0.000410734
2 *218:A 0.000410734
3 *218:A *179:B 2.89114e-05
4 *214:A *218:A 0
*RES
1 B[2] *218:A 21.8357 
*END

*D_NET *8 0.000640458
*CONN
*P B[3] I
*I *219:A I *D sky130_fd_sc_hd__dlymetal6s2s_1
*CAP
1 B[3] 0.000290849
2 *219:A 0.000290849
3 *213:A *219:A 2.99915e-05
4 *215:A *219:A 2.87684e-05
*RES
1 B[3] *219:A 21.0874 
*END

*D_NET *9 0.000649557
*CONN
*P P[0] O
*I *227:X O *D sky130_fd_sc_hd__buf_2
*CAP
1 P[0] 0.000311189
2 *227:X 0.000311189
3 *217:A P[0] 2.71788e-05
*RES
1 *227:X P[0] 20.891 
*END

*D_NET *10 0.000880865
*CONN
*P P[1] O
*I *220:X O *D sky130_fd_sc_hd__buf_2
*CAP
1 P[1] 0.000440432
2 *220:X 0.000440432
3 *212:A P[1] 0
*RES
1 *220:X P[1] 21.6393 
*END

*D_NET *11 0.000500662
*CONN
*P P[2] O
*I *221:X O *D sky130_fd_sc_hd__buf_2
*CAP
1 P[2] 0.000212023
2 *221:X 0.000212023
3 *216:A P[2] 7.66163e-05
*RES
1 *221:X P[2] 18.1949 
*END

*D_NET *12 0.000501113
*CONN
*P P[3] O
*I *222:X O *D sky130_fd_sc_hd__buf_2
*CAP
1 P[3] 0.000208532
2 *222:X 0.000208532
3 P[3] P[4] 8.40493e-05
*RES
1 *222:X P[3] 18.1949 
*END

*D_NET *13 0.00048928
*CONN
*P P[4] O
*I *223:X O *D sky130_fd_sc_hd__buf_2
*CAP
1 P[4] 0.000202616
2 *223:X 0.000202616
3 P[3] P[4] 8.40493e-05
*RES
1 *223:X P[4] 18.1949 
*END

*D_NET *14 0.000951893
*CONN
*P P[5] O
*I *224:X O *D sky130_fd_sc_hd__buf_2
*CAP
1 P[5] 0.000475946
2 *224:X 0.000475946
*RES
1 *224:X P[5] 23.2643 
*END

*D_NET *15 0.000643037
*CONN
*P P[6] O
*I *225:X O *D sky130_fd_sc_hd__buf_2
*CAP
1 P[6] 0.000310221
2 *225:X 0.000310221
3 P[6] P[7] 2.25951e-05
4 P[6] *225:A 0
5 *215:A P[6] 0
*RES
1 *225:X P[6] 19.4092 
*END

*D_NET *16 0.000724586
*CONN
*P P[7] O
*I *226:X O *D sky130_fd_sc_hd__buf_2
*CAP
1 P[7] 0.000335026
2 *226:X 0.000335026
3 P[6] P[7] 2.25951e-05
4 *215:A P[7] 3.19385e-05
*RES
1 *226:X P[7] 20.891 
*END

*D_NET *19 0.000680357
*CONN
*I *183:A I *D sky130_fd_sc_hd__xor2_1
*I *179:Y O *D sky130_fd_sc_hd__nand2_1
*CAP
1 *183:A 0.000340178
2 *179:Y 0.000340178
3 *183:A *179:A 0
*RES
1 *179:Y *183:A 32.1357 
*END

*D_NET *20 0.00104359
*CONN
*I *194:B1 I *D sky130_fd_sc_hd__a32o_1
*I *182:A2 I *D sky130_fd_sc_hd__a21bo_1
*I *180:X O *D sky130_fd_sc_hd__and3_1
*CAP
1 *194:B1 7.77115e-05
2 *182:A2 0.000223151
3 *180:X 0
4 *20:4 0.000300862
5 *182:A2 *180:B 0
6 *182:A2 *182:A1 9.77274e-05
7 *182:A2 *182:B1_N 0.000229456
8 *194:B1 *194:A1 2.39852e-05
9 *194:B1 *194:A3 3.34672e-05
10 *194:B1 *59:23 5.01117e-05
11 *194:B1 *59:34 7.11733e-06
*RES
1 *180:X *20:4 9.3 
2 *20:4 *182:A2 14.2643 
3 *20:4 *194:B1 19.8804 
*END

*D_NET *21 0.00120516
*CONN
*I *182:B1_N I *D sky130_fd_sc_hd__a21bo_1
*I *194:A3 I *D sky130_fd_sc_hd__a32o_1
*I *181:X O *D sky130_fd_sc_hd__a22o_1
*CAP
1 *182:B1_N 0.000108146
2 *194:A3 0.00011438
3 *181:X 4.25756e-05
4 *21:8 0.000265102
5 *182:B1_N *180:B 2.44318e-05
6 *182:B1_N *180:C 2.23227e-05
7 *182:B1_N *182:A1 0.000142856
8 *194:A3 *191:A 6.8646e-06
9 *194:A3 *55:10 8.359e-05
10 *194:A3 *59:23 0
11 *21:8 *180:A 2.89114e-05
12 *21:8 *180:B 8.90799e-05
13 *21:8 *180:C 1.39726e-05
14 *182:A2 *182:B1_N 0.000229456
15 *194:B1 *194:A3 3.34672e-05
*RES
1 *181:X *21:8 10.675 
2 *21:8 *194:A3 20.8536 
3 *21:8 *182:B1_N 12.7107 
*END

*D_NET *22 0.000112637
*CONN
*I *183:B I *D sky130_fd_sc_hd__xor2_1
*I *182:X O *D sky130_fd_sc_hd__a21bo_1
*CAP
1 *183:B 5.63185e-05
2 *182:X 5.63185e-05
*RES
1 *182:X *183:B 19.5464 
*END

*D_NET *23 0.00101805
*CONN
*I *207:A I *D sky130_fd_sc_hd__xor2_1
*I *206:A I *D sky130_fd_sc_hd__nor2_1
*I *184:Y O *D sky130_fd_sc_hd__nand2_1
*CAP
1 *207:A 0.000167483
2 *206:A 0
3 *184:Y 0.000226695
4 *23:8 0.000394177
5 *207:A *207:B 0.00015134
6 *23:8 *56:10 7.83587e-05
*RES
1 *184:Y *23:8 18.175 
2 *23:8 *206:A 13.8 
3 *23:8 *207:A 16.9964 
*END

*D_NET *24 0.000451214
*CONN
*I *198:B1_N I *D sky130_fd_sc_hd__a21boi_1
*I *187:A I *D sky130_fd_sc_hd__nand2_1
*I *185:Y O *D sky130_fd_sc_hd__nand4_1
*CAP
1 *198:B1_N 0
2 *187:A 6.29488e-06
3 *185:Y 0.000108483
4 *24:12 0.000114778
5 *187:A *189:A 5.71472e-05
6 *187:A *198:A1 5.71472e-05
7 *24:12 *185:B 1.02504e-05
8 *24:12 *189:A 4.18895e-05
9 *24:12 *198:A1 5.52238e-05
10 *24:12 *25:10 0
*RES
1 *185:Y *24:12 20.4786 
2 *24:12 *187:A 9.83571 
3 *24:12 *198:B1_N 9.3 
*END

*D_NET *25 0.000796073
*CONN
*I *198:A1 I *D sky130_fd_sc_hd__a21boi_1
*I *187:B I *D sky130_fd_sc_hd__nand2_1
*I *186:X O *D sky130_fd_sc_hd__a22o_1
*CAP
1 *198:A1 0.000137241
2 *187:B 0
3 *186:X 7.47021e-05
4 *25:10 0.000211943
5 *198:A1 *189:A 9.61554e-05
6 *198:A1 *198:A2 3.57366e-05
7 *198:A1 *36:12 5.62995e-05
8 *25:10 *185:B 4.1331e-06
9 *25:10 *56:18 6.74911e-05
10 *187:A *198:A1 5.71472e-05
11 *24:12 *198:A1 5.52238e-05
12 *24:12 *25:10 0
*RES
1 *186:X *25:10 19.9429 
2 *25:10 *187:B 9.3 
3 *25:10 *198:A1 13.1571 
*END

*D_NET *26 0.000926031
*CONN
*I *189:A I *D sky130_fd_sc_hd__xnor2_1
*I *187:Y O *D sky130_fd_sc_hd__nand2_1
*CAP
1 *189:A 0.000283795
2 *187:Y 0.000283795
3 *189:A *198:A2 0.000154027
4 *189:A *36:12 9.22103e-06
5 *187:A *189:A 5.71472e-05
6 *198:A1 *189:A 9.61554e-05
7 *24:12 *189:A 4.18895e-05
*RES
1 *187:Y *189:A 24.4929 
*END

*D_NET *27 0.00217564
*CONN
*I *189:B I *D sky130_fd_sc_hd__xnor2_1
*I *198:A2 I *D sky130_fd_sc_hd__a21boi_1
*I *188:X O *D sky130_fd_sc_hd__and2_1
*CAP
1 *189:B 0
2 *198:A2 7.32561e-05
3 *188:X 0.000405904
4 *27:14 0.00047916
5 *198:A2 *36:12 0.000177958
6 *27:14 *190:A 0.000317609
7 *27:14 *190:B 4.58194e-05
8 *27:14 *191:B 0.00017309
9 *27:14 *28:14 0.000185541
10 *27:14 *33:12 0
11 *27:14 *36:12 7.09928e-05
12 *27:14 *58:33 4.32165e-05
13 *27:14 *59:34 1.33343e-05
14 *189:A *198:A2 0.000154027
15 *198:A1 *198:A2 3.57366e-05
*RES
1 *188:X *27:14 27.4429 
2 *27:14 *198:A2 12.7286 
3 *27:14 *189:B 9.3 
*END

*D_NET *28 0.00344572
*CONN
*I *197:A I *D sky130_fd_sc_hd__xnor2_1
*I *202:B1 I *D sky130_fd_sc_hd__o21a_1
*I *205:A1 I *D sky130_fd_sc_hd__a211oi_1
*I *189:Y O *D sky130_fd_sc_hd__xnor2_1
*CAP
1 *197:A 0.000138258
2 *202:B1 0
3 *205:A1 0
4 *189:Y 0.000403167
5 *28:31 0.000684632
6 *28:14 0.000949541
7 *197:A *202:A1 9.90431e-05
8 *28:14 *190:B 1.46231e-05
9 *28:14 *201:A 1.41029e-05
10 *28:14 *205:A2 3.84349e-05
11 *28:14 *29:8 0.000153047
12 *28:14 *29:21 0.000198698
13 *28:14 *36:12 0.000143652
14 *28:14 *38:10 0.000123352
15 *28:31 *201:A 0.000240587
16 *28:31 *201:B 3.41517e-06
17 *28:31 *205:A2 1.75032e-05
18 *28:31 *205:C1 3.81226e-05
19 *27:14 *28:14 0.000185541
*RES
1 *189:Y *28:14 23.7464 
2 *28:14 *205:A1 13.8 
3 *28:14 *28:31 13.6071 
4 *28:31 *202:B1 9.3 
5 *28:31 *197:A 11.8893 
*END

*D_NET *29 0.00162324
*CONN
*I *200:A I *D sky130_fd_sc_hd__nor2_1
*I *199:A I *D sky130_fd_sc_hd__and2_1
*I *204:A_N I *D sky130_fd_sc_hd__and3b_1
*I *190:Y O *D sky130_fd_sc_hd__nand2_1
*CAP
1 *200:A 0.000109866
2 *199:A 9.596e-05
3 *204:A_N 9.45489e-05
4 *190:Y 3.99324e-05
5 *29:21 0.00026634
6 *29:8 0.000194995
7 *199:A *199:B 5.49489e-05
8 *199:A *200:B 5.33005e-05
9 *200:A *200:B 4.08637e-05
10 *29:8 *36:12 0.000153047
11 *29:21 *36:12 0.000167691
12 *28:14 *29:8 0.000153047
13 *28:14 *29:21 0.000198698
*RES
1 *190:Y *29:8 15.7464 
2 *29:8 *204:A_N 15.1571 
3 *29:8 *29:21 7.05357 
4 *29:21 *199:A 11.0679 
5 *29:21 *200:A 11.0857 
*END

*D_NET *30 0.00389464
*CONN
*I *205:A2 I *D sky130_fd_sc_hd__a211oi_1
*I *196:A I *D sky130_fd_sc_hd__nor2_1
*I *202:A1 I *D sky130_fd_sc_hd__o21a_1
*I *193:A I *D sky130_fd_sc_hd__nor2_1
*I *191:X O *D sky130_fd_sc_hd__and4_1
*CAP
1 *205:A2 0.000331665
2 *196:A 0
3 *202:A1 0.000154968
4 *193:A 0
5 *191:X 0.000399242
6 *30:31 0.000439523
7 *30:27 0.000829682
8 *30:18 0.000612703
9 *202:A1 *197:B 0
10 *202:A1 *202:A2 0.000143804
11 *202:A1 *34:8 9.25014e-06
12 *205:A2 *205:C1 0.000370503
13 *30:18 *191:B 4.22431e-05
14 *30:18 *193:B 8.39e-05
15 *30:18 *60:53 9.41642e-05
16 *30:27 *205:C1 0.000129868
17 *30:27 *32:12 3.92757e-05
18 *30:27 *33:12 5.88692e-05
19 *197:A *202:A1 9.90431e-05
20 *28:14 *205:A2 3.84349e-05
21 *28:31 *205:A2 1.75032e-05
*RES
1 *191:X *30:18 21.0857 
2 *30:18 *193:A 13.8 
3 *30:18 *30:27 4.98214 
4 *30:27 *30:31 9.14286 
5 *30:31 *202:A1 21.8 
6 *30:31 *196:A 9.3 
7 *30:27 *205:A2 28.3714 
*END

*D_NET *31 0.00124208
*CONN
*I *193:B I *D sky130_fd_sc_hd__nor2_1
*I *192:Y O *D sky130_fd_sc_hd__a22oi_1
*CAP
1 *193:B 0.000229508
2 *192:Y 0.000229508
3 *193:B *191:A 3.22613e-05
4 *193:B *192:A2 0.000124154
5 *193:B *33:12 0.000320031
6 *193:B *58:33 7.20217e-06
7 *193:B *58:42 3.29242e-05
8 *193:B *59:34 0.000182592
9 *30:18 *193:B 8.39e-05
*RES
1 *192:Y *193:B 34.0464 
*END

*D_NET *32 0.00141909
*CONN
*I *208:A I *D sky130_fd_sc_hd__nor2_1
*I *195:A I *D sky130_fd_sc_hd__and2_1
*I *204:B I *D sky130_fd_sc_hd__and3b_1
*I *193:Y O *D sky130_fd_sc_hd__nor2_1
*CAP
1 *208:A 9.59952e-05
2 *195:A 0
3 *204:B 0
4 *193:Y 7.33498e-05
5 *32:23 0.000354741
6 *32:12 0.000332096
7 *208:A *208:B 8.30578e-05
8 *208:A *33:16 0.00010096
9 *32:12 *33:12 7.83587e-05
10 *32:23 *33:16 0.000261256
11 *30:27 *32:12 3.92757e-05
*RES
1 *193:Y *32:12 19.8714 
2 *32:12 *204:B 9.3 
3 *32:12 *32:23 5.5 
4 *32:23 *195:A 9.3 
5 *32:23 *208:A 11.9071 
*END

*D_NET *33 0.00259439
*CONN
*I *204:C I *D sky130_fd_sc_hd__and3b_1
*I *208:B I *D sky130_fd_sc_hd__nor2_1
*I *195:B I *D sky130_fd_sc_hd__and2_1
*I *194:X O *D sky130_fd_sc_hd__a32o_1
*CAP
1 *204:C 0
2 *208:B 0.00013117
3 *195:B 0
4 *194:X 0.000357196
5 *33:16 0.000382069
6 *33:12 0.000608095
7 *208:B *209:B 5.71472e-05
8 *33:12 *191:A 0.00010288
9 *33:12 *59:34 5.33005e-05
10 *193:B *33:12 0.000320031
11 *208:A *208:B 8.30578e-05
12 *208:A *33:16 0.00010096
13 *27:14 *33:12 0
14 *30:27 *33:12 5.88692e-05
15 *32:12 *33:12 7.83587e-05
16 *32:23 *33:16 0.000261256
*RES
1 *194:X *33:12 25.9429 
2 *33:12 *33:16 5.89286 
3 *33:16 *195:B 9.3 
4 *33:16 *208:B 12.3357 
5 *33:12 *204:C 9.3 
*END

*D_NET *34 0.000779859
*CONN
*I *202:A2 I *D sky130_fd_sc_hd__o21a_1
*I *209:A I *D sky130_fd_sc_hd__nor2_1
*I *196:B I *D sky130_fd_sc_hd__nor2_1
*I *195:X O *D sky130_fd_sc_hd__and2_1
*CAP
1 *202:A2 6.1708e-05
2 *209:A 8.45117e-05
3 *196:B 0
4 *195:X 9.54279e-05
5 *34:12 0.00011957
6 *34:8 0.000192194
7 *202:A2 *197:B 2.79092e-05
8 *209:A *197:B 4.01768e-05
9 *34:8 *209:B 0
10 *34:12 *197:B 5.30637e-06
11 *202:A1 *202:A2 0.000143804
12 *202:A1 *34:8 9.25014e-06
*RES
1 *195:X *34:8 15.4429 
2 *34:8 *34:12 5.03571 
3 *34:12 *196:B 9.3 
4 *34:12 *209:A 11.0679 
5 *34:8 *202:A2 15.7464 
*END

*D_NET *35 0.000381426
*CONN
*I *197:B I *D sky130_fd_sc_hd__xnor2_1
*I *196:Y O *D sky130_fd_sc_hd__nor2_1
*CAP
1 *197:B 0.000154017
2 *196:Y 0.000154017
3 *202:A1 *197:B 0
4 *202:A2 *197:B 2.79092e-05
5 *209:A *197:B 4.01768e-05
6 *34:12 *197:B 5.30637e-06
*RES
1 *196:Y *197:B 30.1893 
*END

*D_NET *36 0.00231014
*CONN
*I *200:B I *D sky130_fd_sc_hd__nor2_1
*I *199:B I *D sky130_fd_sc_hd__and2_1
*I *198:Y O *D sky130_fd_sc_hd__a21boi_1
*CAP
1 *200:B 4.86118e-05
2 *199:B 2.55335e-05
3 *198:Y 0.000616935
4 *36:12 0.00069108
5 *189:A *36:12 9.22103e-06
6 *198:A1 *36:12 5.62995e-05
7 *198:A2 *36:12 0.000177958
8 *199:A *199:B 5.49489e-05
9 *199:A *200:B 5.33005e-05
10 *200:A *200:B 4.08637e-05
11 *27:14 *36:12 7.09928e-05
12 *28:14 *36:12 0.000143652
13 *29:8 *36:12 0.000153047
14 *29:21 *36:12 0.000167691
*RES
1 *198:Y *36:12 29.0679 
2 *36:12 *199:B 9.83571 
3 *36:12 *200:B 10.2464 
*END

*D_NET *37 0.00095094
*CONN
*I *201:A I *D sky130_fd_sc_hd__or2_1
*I *199:X O *D sky130_fd_sc_hd__and2_1
*CAP
1 *201:A 0.000215984
2 *199:X 0.000215984
3 *201:A *201:B 9.18544e-05
4 *201:A *205:C1 4.49806e-05
5 *201:A *38:10 0.000127446
6 *28:14 *201:A 1.41029e-05
7 *28:31 *201:A 0.000240587
*RES
1 *199:X *201:A 32.85 
*END

*D_NET *38 0.000758876
*CONN
*I *201:B I *D sky130_fd_sc_hd__or2_1
*I *205:B1 I *D sky130_fd_sc_hd__a211oi_1
*I *200:Y O *D sky130_fd_sc_hd__nor2_1
*CAP
1 *201:B 7.37861e-05
2 *205:B1 0
3 *200:Y 4.25784e-05
4 *38:10 0.000116364
5 *201:B *205:C1 0.000180079
6 *201:A *201:B 9.18544e-05
7 *201:A *38:10 0.000127446
8 *28:14 *38:10 0.000123352
9 *28:31 *201:B 3.41517e-06
*RES
1 *200:Y *38:10 19.9429 
2 *38:10 *205:B1 9.3 
3 *38:10 *201:B 11.4964 
*END

*D_NET *39 0.000305446
*CONN
*I *203:A I *D sky130_fd_sc_hd__xnor2_1
*I *201:X O *D sky130_fd_sc_hd__or2_1
*CAP
1 *203:A 0.000125111
2 *201:X 0.000125111
3 *203:A *203:B 5.52238e-05
*RES
1 *201:X *203:A 29.7786 
*END

*D_NET *40 0.000833155
*CONN
*I *203:B I *D sky130_fd_sc_hd__xnor2_1
*I *202:X O *D sky130_fd_sc_hd__o21a_1
*CAP
1 *203:B 0.000388966
2 *202:X 0.000388966
3 *203:A *203:B 5.52238e-05
*RES
1 *202:X *203:B 34.1893 
*END

*D_NET *41 0.00142732
*CONN
*I *205:C1 I *D sky130_fd_sc_hd__a211oi_1
*I *204:X O *D sky130_fd_sc_hd__and3b_1
*CAP
1 *205:C1 0.000331881
2 *204:X 0.000331881
3 *201:A *205:C1 4.49806e-05
4 *201:B *205:C1 0.000180079
5 *205:A2 *205:C1 0.000370503
6 *28:31 *205:C1 3.81226e-05
7 *30:27 *205:C1 0.000129868
*RES
1 *204:X *205:C1 35.6179 
*END

*D_NET *42 0.00188827
*CONN
*I *207:B I *D sky130_fd_sc_hd__xor2_1
*I *206:B I *D sky130_fd_sc_hd__nor2_1
*I *205:Y O *D sky130_fd_sc_hd__a211oi_1
*CAP
1 *207:B 9.74401e-05
2 *206:B 4.96046e-05
3 *205:Y 0.000705487
4 *42:6 0.000852532
5 *206:B *226:A 3.18676e-05
6 *207:A *207:B 0.00015134
*RES
1 *205:Y *42:6 19.6929 
2 *42:6 *206:B 10.2643 
3 *42:6 *207:B 20.55 
*END

*D_NET *43 0.000615029
*CONN
*I *209:B I *D sky130_fd_sc_hd__nor2_1
*I *208:Y O *D sky130_fd_sc_hd__nor2_1
*CAP
1 *209:B 0.000278941
2 *208:Y 0.000278941
3 *208:B *209:B 5.71472e-05
4 *34:8 *209:B 0
*RES
1 *208:Y *209:B 31.4214 
*END

*D_NET *44 0.000104936
*CONN
*I *211:A I *D sky130_fd_sc_hd__clkbuf_1
*I *178:X O *D sky130_fd_sc_hd__and2_1
*CAP
1 *211:A 8.34885e-06
2 *178:X 8.34885e-06
3 *211:A *178:B 5.68713e-05
4 *211:A *54:24 3.1367e-05
*RES
1 *178:X *211:A 19.1357 
*END

*D_NET *45 0.00029888
*CONN
*I *210:A I *D sky130_fd_sc_hd__clkbuf_1
*I *177:Y O *D sky130_fd_sc_hd__inv_2
*CAP
1 *210:A 4.63784e-05
2 *177:Y 4.63784e-05
3 *210:A *227:A 0.00010096
4 *210:A *54:24 0.000105163
*RES
1 *177:Y *210:A 20.3679 
*END

*D_NET *46 0.00324634
*CONN
*I *191:B I *D sky130_fd_sc_hd__and4_1
*I *192:B2 I *D sky130_fd_sc_hd__a22oi_1
*I *180:C I *D sky130_fd_sc_hd__and3_1
*I *181:B1 I *D sky130_fd_sc_hd__a22o_1
*I *178:B I *D sky130_fd_sc_hd__and2_1
*I *212:X O *D sky130_fd_sc_hd__buf_1
*CAP
1 *191:B 0.000183485
2 *192:B2 0
3 *180:C 0.000254101
4 *181:B1 0
5 *178:B 0.000259651
6 *212:X 0.000122029
7 *46:37 0.000261998
8 *46:21 0.000318508
9 *46:10 0.000324057
10 *46:8 0.000200543
11 *178:B *181:B2 5.33005e-05
12 *178:B *54:24 0.000143603
13 *180:C *180:A 0.000192209
14 *180:C *54:24 7.92229e-06
15 *191:B *190:A 2.94027e-05
16 *191:B *192:B1 0.00021844
17 *191:B *60:53 5.33005e-05
18 *46:8 *181:B2 3.17148e-05
19 *46:8 *220:A 3.92757e-05
20 *46:21 *181:B2 4.25176e-05
21 *46:21 *54:24 3.18747e-05
22 *46:37 *181:B2 0.000138946
23 *46:37 *191:C 2.09266e-05
24 *46:37 *192:B1 1.00332e-05
25 *182:B1_N *180:C 2.23227e-05
26 *211:A *178:B 5.68713e-05
27 *21:8 *180:C 1.39726e-05
28 *27:14 *191:B 0.00017309
29 *30:18 *191:B 4.22431e-05
*RES
1 *212:X *46:8 16.05 
2 *46:8 *46:10 4.5 
3 *46:10 *178:B 14.3714 
4 *46:10 *46:21 1.35714 
5 *46:21 *181:B1 9.3 
6 *46:21 *180:C 12.8 
7 *46:8 *46:37 1.94643 
8 *46:37 *192:B2 13.8 
9 *46:37 *191:B 18.3179 
*END

*D_NET *47 0.000922717
*CONN
*I *220:A I *D sky130_fd_sc_hd__buf_2
*I *211:X O *D sky130_fd_sc_hd__clkbuf_1
*CAP
1 *220:A 0.000345221
2 *211:X 0.000345221
3 *220:A *54:24 0.000183889
4 *220:A *55:10 0
5 *212:A *220:A 9.11048e-06
6 *46:8 *220:A 3.92757e-05
*RES
1 *211:X *220:A 33.3321 
*END

*D_NET *48 0.000352929
*CONN
*I *221:A I *D sky130_fd_sc_hd__buf_2
*I *183:X O *D sky130_fd_sc_hd__xor2_1
*CAP
1 *221:A 0.000176464
2 *183:X 0.000176464
*RES
1 *183:X *221:A 21.6179 
*END

*D_NET *49 0.000557275
*CONN
*I *222:A I *D sky130_fd_sc_hd__buf_2
*I *209:Y O *D sky130_fd_sc_hd__nor2_1
*CAP
1 *222:A 0.000278637
2 *209:Y 0.000278637
*RES
1 *209:Y *222:A 23.2607 
*END

*D_NET *50 0.000482402
*CONN
*I *223:A I *D sky130_fd_sc_hd__buf_2
*I *197:Y O *D sky130_fd_sc_hd__xnor2_1
*CAP
1 *223:A 0.000241201
2 *197:Y 0.000241201
*RES
1 *197:Y *223:A 22.7429 
*END

*D_NET *51 0.000671719
*CONN
*I *224:A I *D sky130_fd_sc_hd__buf_2
*I *203:Y O *D sky130_fd_sc_hd__xnor2_1
*CAP
1 *224:A 0.000335859
2 *203:Y 0.000335859
*RES
1 *203:Y *224:A 33.2607 
*END

*D_NET *52 0.000348767
*CONN
*I *225:A I *D sky130_fd_sc_hd__buf_2
*I *207:X O *D sky130_fd_sc_hd__xor2_1
*CAP
1 *225:A 0.000174383
2 *207:X 0.000174383
3 P[6] *225:A 0
*RES
1 *207:X *225:A 30.4929 
*END

*D_NET *53 0.000412737
*CONN
*I *226:A I *D sky130_fd_sc_hd__buf_2
*I *206:Y O *D sky130_fd_sc_hd__nor2_1
*CAP
1 *226:A 0.000190435
2 *206:Y 0.000190435
3 *206:B *226:A 3.18676e-05
*RES
1 *206:Y *226:A 22.0286 
*END

*D_NET *54 0.00518579
*CONN
*I *186:A1 I *D sky130_fd_sc_hd__a22o_1
*I *185:A I *D sky130_fd_sc_hd__nand4_1
*I *177:A I *D sky130_fd_sc_hd__inv_2
*I *180:A I *D sky130_fd_sc_hd__and3_1
*I *181:A1 I *D sky130_fd_sc_hd__a22o_1
*I *213:X O *D sky130_fd_sc_hd__dlymetal6s2s_1
*CAP
1 *186:A1 3.03106e-05
2 *185:A 0.000327436
3 *177:A 0
4 *180:A 6.59389e-05
5 *181:A1 0
6 *213:X 0.000253912
7 *54:24 0.000737687
8 *54:18 0.000900968
9 *54:12 0.000604584
10 *54:10 0.00033215
11 *180:A *180:B 1.28675e-05
12 *180:A *181:A2 5.49489e-05
13 *185:A *58:16 0.000359997
14 *185:A *60:29 3.99614e-06
15 *185:A *60:36 3.30352e-05
16 *186:A1 *185:D 5.71472e-05
17 *186:A1 *58:16 5.33433e-05
18 *54:10 *60:23 9.14147e-05
19 *54:12 *185:B 0
20 *54:12 *186:B2 5.83304e-05
21 *54:12 *58:10 2.31791e-05
22 *54:12 *60:23 2.8266e-06
23 *54:18 *178:A 0
24 *54:18 *227:A 5.52302e-05
25 *54:18 *58:10 0.000128161
26 *54:18 *58:18 0
27 *54:24 *178:A 0.000178459
28 *54:24 *180:B 3.15375e-05
29 *54:24 *181:B2 5.12608e-05
30 *54:24 *227:A 1.21289e-05
31 *178:B *54:24 0.000143603
32 *180:C *180:A 0.000192209
33 *180:C *54:24 7.92229e-06
34 *210:A *54:24 0.000105163
35 *211:A *54:24 3.1367e-05
36 *220:A *54:24 0.000183889
37 *21:8 *180:A 2.89114e-05
38 *46:21 *54:24 3.18747e-05
*RES
1 *213:X *54:10 18.6393 
2 *54:10 *54:12 1.03571 
3 *54:12 *54:18 9.10714 
4 *54:18 *54:24 14.3214 
5 *54:24 *181:A1 9.3 
6 *54:24 *180:A 11.4964 
7 *54:18 *177:A 9.3 
8 *54:12 *185:A 18.7643 
9 *54:10 *186:A1 14.7464 
*END

*D_NET *55 0.0046991
*CONN
*I *179:B I *D sky130_fd_sc_hd__nand2_1
*I *194:A2 I *D sky130_fd_sc_hd__a32o_1
*I *192:A2 I *D sky130_fd_sc_hd__a22oi_1
*I *191:C I *D sky130_fd_sc_hd__and4_1
*I *190:A I *D sky130_fd_sc_hd__nand2_1
*I *188:B I *D sky130_fd_sc_hd__and2_1
*I *214:X O *D sky130_fd_sc_hd__buf_1
*CAP
1 *179:B 0.00039015
2 *194:A2 7.5093e-05
3 *192:A2 4.60296e-05
4 *191:C 0.000142535
5 *190:A 0.000205814
6 *188:B 0
7 *214:X 0
8 *55:20 0.000406575
9 *55:14 0.000514735
10 *55:10 0.00054638
11 *55:4 0.000643968
12 *190:A *181:B2 5.37741e-06
13 *190:A *190:B 0.000148312
14 *191:C *191:A 4.19447e-05
15 *191:C *192:B1 0.000216793
16 *191:C *58:46 0
17 *192:A2 *194:A1 0
18 *192:A2 *58:42 8.13601e-05
19 *194:A2 *59:34 4.51726e-05
20 *55:10 *191:A 9.25014e-06
21 *55:10 *58:46 0.000144038
22 *55:10 *59:8 0
23 *55:10 *59:23 0
24 *55:14 *194:A1 0
25 *55:14 *58:33 5.47047e-05
26 *55:14 *58:42 0.000128109
27 *55:20 *181:B2 2.6304e-05
28 *55:20 *58:33 0.000221862
29 *191:B *190:A 2.94027e-05
30 *193:B *192:A2 0.000124154
31 *194:A3 *55:10 8.359e-05
32 *218:A *179:B 2.89114e-05
33 *220:A *55:10 0
34 *27:14 *190:A 0.000317609
35 *46:37 *191:C 2.09266e-05
*RES
1 *214:X *55:4 9.3 
2 *55:4 *55:10 13.0714 
3 *55:10 *55:14 2.60714 
4 *55:14 *55:20 7.41071 
5 *55:20 *188:B 13.8 
6 *55:20 *190:A 19.4429 
7 *55:14 *191:C 21.7643 
8 *55:10 *192:A2 10.925 
9 *55:10 *194:A2 10.6571 
10 *55:4 *179:B 15.4964 
*END

*D_NET *56 0.00222906
*CONN
*I *184:B I *D sky130_fd_sc_hd__nand2_1
*I *185:D I *D sky130_fd_sc_hd__nand4_1
*I *186:B1 I *D sky130_fd_sc_hd__a22o_1
*I *215:X O *D sky130_fd_sc_hd__buf_1
*CAP
1 *184:B 0
2 *185:D 8.11239e-05
3 *186:B1 0
4 *215:X 0.000448708
5 *56:18 0.000315768
6 *56:10 0.000683352
7 *185:D *58:16 1.21289e-05
8 *185:D *60:29 0.000139352
9 *56:18 *60:23 0.000345632
10 *186:A1 *185:D 5.71472e-05
11 *23:8 *56:10 7.83587e-05
12 *25:10 *56:18 6.74911e-05
*RES
1 *215:X *56:10 19.675 
2 *56:10 *56:18 10.25 
3 *56:18 *186:B1 9.3 
4 *56:18 *185:D 12.0321 
5 *56:10 *184:B 13.8 
*END

*D_NET *57 0.00263512
*CONN
*I *179:A I *D sky130_fd_sc_hd__nand2_1
*I *194:A1 I *D sky130_fd_sc_hd__a32o_1
*I *216:X O *D sky130_fd_sc_hd__clkbuf_1
*CAP
1 *179:A 0.000299589
2 *194:A1 0.000422556
3 *216:X 0.000568071
4 *57:6 0.00129022
5 *179:A *59:8 0
6 *179:A *59:23 0
7 *194:A1 *59:34 3.07078e-05
8 *183:A *179:A 0
9 *192:A2 *194:A1 0
10 *194:B1 *194:A1 2.39852e-05
11 *55:14 *194:A1 0
*RES
1 *216:X *57:6 15.9964 
2 *57:6 *194:A1 14.3714 
3 *57:6 *179:A 22.675 
*END

*D_NET *58 0.00592217
*CONN
*I *186:B2 I *D sky130_fd_sc_hd__a22o_1
*I *185:B I *D sky130_fd_sc_hd__nand4_1
*I *191:A I *D sky130_fd_sc_hd__and4_1
*I *180:B I *D sky130_fd_sc_hd__and3_1
*I *181:A2 I *D sky130_fd_sc_hd__a22o_1
*I *192:A1 I *D sky130_fd_sc_hd__a22oi_1
*I *178:A I *D sky130_fd_sc_hd__and2_1
*I *217:X O *D sky130_fd_sc_hd__dlymetal6s2s_1
*CAP
1 *186:B2 2.67261e-05
2 *185:B 8.35878e-05
3 *191:A 0.000157724
4 *180:B 0.000166231
5 *181:A2 1.75934e-05
6 *192:A1 0
7 *178:A 0.000240537
8 *217:X 0.000212875
9 *58:46 0.000302135
10 *58:42 0.000300904
11 *58:33 0.000557879
12 *58:18 0.000936886
13 *58:16 0.000339295
14 *58:10 0.000331969
15 *185:B *60:23 0
16 *58:16 *60:29 0.000188586
17 *58:16 *60:36 2.14658e-05
18 *58:33 *192:B1 5.49489e-05
19 *58:33 *59:34 3.53616e-05
20 *180:A *180:B 1.28675e-05
21 *180:A *181:A2 5.49489e-05
22 *182:A2 *180:B 0
23 *182:B1_N *180:B 2.44318e-05
24 *185:A *58:16 0.000359997
25 *185:D *58:16 1.21289e-05
26 *186:A1 *58:16 5.33433e-05
27 *191:C *191:A 4.19447e-05
28 *191:C *58:46 0
29 *192:A2 *58:42 8.13601e-05
30 *193:B *191:A 3.22613e-05
31 *193:B *58:33 7.20217e-06
32 *193:B *58:42 3.29242e-05
33 *194:A3 *191:A 6.8646e-06
34 *21:8 *180:B 8.90799e-05
35 *24:12 *185:B 1.02504e-05
36 *25:10 *185:B 4.1331e-06
37 *27:14 *58:33 4.32165e-05
38 *33:12 *191:A 0.00010288
39 *54:12 *185:B 0
40 *54:12 *186:B2 5.83304e-05
41 *54:12 *58:10 2.31791e-05
42 *54:18 *178:A 0
43 *54:18 *58:10 0.000128161
44 *54:18 *58:18 0
45 *54:24 *178:A 0.000178459
46 *54:24 *180:B 3.15375e-05
47 *55:10 *191:A 9.25014e-06
48 *55:10 *58:46 0.000144038
49 *55:14 *58:33 5.47047e-05
50 *55:14 *58:42 0.000128109
51 *55:20 *58:33 0.000221862
*RES
1 *217:X *58:10 17.925 
2 *58:10 *58:16 12.8214 
3 *58:16 *58:18 2.55357 
4 *58:18 *178:A 18.7464 
5 *58:18 *58:33 14.0714 
6 *58:33 *192:A1 9.3 
7 *58:33 *58:42 5.85714 
8 *58:42 *58:46 6.44643 
9 *58:46 *181:A2 9.83571 
10 *58:46 *180:B 12.1036 
11 *58:42 *191:A 17.0143 
12 *58:16 *185:B 15.1393 
13 *58:10 *186:B2 14.5321 
*END

*D_NET *59 0.0029932
*CONN
*I *188:A I *D sky130_fd_sc_hd__and2_1
*I *181:B2 I *D sky130_fd_sc_hd__a22o_1
*I *194:B2 I *D sky130_fd_sc_hd__a32o_1
*I *182:A1 I *D sky130_fd_sc_hd__a21bo_1
*I *218:X O *D sky130_fd_sc_hd__buf_1
*CAP
1 *188:A 0
2 *181:B2 0.000128992
3 *194:B2 0
4 *182:A1 0.000163679
5 *218:X 8.38956e-05
6 *59:34 0.000541354
7 *59:23 0.000603213
8 *59:8 0.000438426
9 *59:34 *192:B1 2.59355e-05
10 *178:B *181:B2 5.33005e-05
11 *179:A *59:8 0
12 *179:A *59:23 0
13 *182:A2 *182:A1 9.77274e-05
14 *182:B1_N *182:A1 0.000142856
15 *190:A *181:B2 5.37741e-06
16 *193:B *59:34 0.000182592
17 *194:A1 *59:34 3.07078e-05
18 *194:A2 *59:34 4.51726e-05
19 *194:A3 *59:23 0
20 *194:B1 *59:23 5.01117e-05
21 *194:B1 *59:34 7.11733e-06
22 *27:14 *59:34 1.33343e-05
23 *33:12 *59:34 5.33005e-05
24 *46:8 *181:B2 3.17148e-05
25 *46:21 *181:B2 4.25176e-05
26 *46:37 *181:B2 0.000138946
27 *54:24 *181:B2 5.12608e-05
28 *55:10 *59:8 0
29 *55:10 *59:23 0
30 *55:20 *181:B2 2.6304e-05
31 *58:33 *59:34 3.53616e-05
*RES
1 *218:X *59:8 15.1393 
2 *59:8 *182:A1 17.2286 
3 *59:8 *59:23 7.66071 
4 *59:23 *194:B2 9.3 
5 *59:23 *59:34 7.44643 
6 *59:34 *181:B2 21.4964 
7 *59:34 *188:A 9.3 
*END

*D_NET *60 0.00444044
*CONN
*I *186:A2 I *D sky130_fd_sc_hd__a22o_1
*I *191:D I *D sky130_fd_sc_hd__and4_1
*I *192:B1 I *D sky130_fd_sc_hd__a22oi_1
*I *190:B I *D sky130_fd_sc_hd__nand2_1
*I *185:C I *D sky130_fd_sc_hd__nand4_1
*I *184:A I *D sky130_fd_sc_hd__nand2_1
*I *219:X O *D sky130_fd_sc_hd__dlymetal6s2s_1
*CAP
1 *186:A2 0
2 *191:D 0
3 *192:B1 9.27013e-05
4 *190:B 0.000196415
5 *185:C 0
6 *184:A 0
7 *219:X 0.000178519
8 *60:53 0.000193598
9 *60:36 0.000751814
10 *60:29 0.000514802
11 *60:23 0.000342849
12 *60:6 0.000461068
13 *185:A *60:29 3.99614e-06
14 *185:A *60:36 3.30352e-05
15 *185:B *60:23 0
16 *185:D *60:29 0.000139352
17 *190:A *190:B 0.000148312
18 *191:B *192:B1 0.00021844
19 *191:B *60:53 5.33005e-05
20 *191:C *192:B1 0.000216793
21 *27:14 *190:B 4.58194e-05
22 *28:14 *190:B 1.46231e-05
23 *30:18 *60:53 9.41642e-05
24 *46:37 *192:B1 1.00332e-05
25 *54:10 *60:23 9.14147e-05
26 *54:12 *60:23 2.8266e-06
27 *56:18 *60:23 0.000345632
28 *58:16 *60:29 0.000188586
29 *58:16 *60:36 2.14658e-05
30 *58:33 *192:B1 5.49489e-05