*SPEF "ieee 1481-1999"
*DESIGN "mult8_2bits_2op_e2475"
*DATE "12:21:00 Wednesday September 17, 2025"
*VENDOR "The OpenROAD Project"
*PROGRAM "OpenROAD"
*VERSION "edf00dff99f6c40d67a30c0e22a8191c5d2ed9d6"
*DESIGN_FLOW "NAME_SCOPE LOCAL" "PIN_CAP NONE"
*DIVIDER /
*DELIMITER :
*BUS_DELIMITER []
*T_UNIT 1 NS
*C_UNIT 1 PF
*R_UNIT 1 OHM
*L_UNIT 1 HENRY

*NAME_MAP
*1 A[0]
*2 A[1]
*3 A[2]
*4 A[3]
*5 A[4]
*6 A[5]
*7 A[6]
*8 A[7]
*9 B[0]
*10 B[1]
*11 B[2]
*12 B[3]
*13 B[4]
*14 B[5]
*15 B[6]
*16 B[7]
*17 net54
*18 P[10]
*19 P[11]
*20 P[12]
*21 P[13]
*22 P[14]
*23 P[15]
*24 P[1]
*25 P[2]
*26 P[3]
*27 P[4]
*28 P[5]
*29 P[6]
*30 P[7]
*31 P[8]
*32 P[9]
*35 _000_
*36 _001_
*37 _002_
*38 _003_
*39 _004_
*40 _005_
*41 _006_
*42 _007_
*43 _008_
*44 _009_
*45 _010_
*46 _011_
*47 _012_
*48 _013_
*49 _014_
*50 _015_
*51 _016_
*52 _017_
*53 _018_
*54 _019_
*55 _020_
*56 _021_
*57 _022_
*58 _023_
*59 _024_
*60 _025_
*61 _026_
*62 _027_
*63 _028_
*64 _029_
*65 _030_
*66 _031_
*67 _032_
*68 _033_
*69 _034_
*70 _035_
*71 _036_
*72 _037_
*73 _038_
*74 _039_
*75 _040_
*76 _041_
*77 _042_
*78 _043_
*79 _044_
*80 _045_
*81 _046_
*82 _047_
*83 _048_
*84 _049_
*85 _050_
*86 _051_
*87 _052_
*88 _053_
*89 _054_
*90 _055_
*91 _056_
*92 _057_
*93 _058_
*94 _059_
*95 _060_
*96 _061_
*97 _062_
*98 _063_
*99 _064_
*100 _065_
*101 _066_
*102 _067_
*103 _068_
*104 _069_
*105 _070_
*106 _071_
*107 _072_
*108 _073_
*109 _074_
*110 _075_
*111 _076_
*112 _077_
*113 _078_
*114 _079_
*115 _080_
*116 _081_
*117 _082_
*118 _083_
*119 _084_
*120 _085_
*121 _086_
*122 _087_
*123 _088_
*124 _089_
*125 _090_
*126 _091_
*127 _092_
*128 _093_
*129 _094_
*130 _095_
*131 _096_
*132 _097_
*133 _098_
*134 _099_
*135 _100_
*136 _101_
*137 _102_
*138 _103_
*139 _104_
*140 _105_
*141 _106_
*142 _107_
*143 _108_
*144 _109_
*145 _110_
*146 _111_
*147 _112_
*148 _113_
*149 _114_
*150 _115_
*151 _116_
*152 _117_
*153 _118_
*154 _119_
*155 _120_
*156 _121_
*157 _122_
*158 _123_
*159 _124_
*160 _125_
*161 _126_
*162 _127_
*163 _128_
*164 _129_
*165 _130_
*166 _131_
*167 _132_
*168 _133_
*169 _134_
*170 _135_
*171 _136_
*172 _137_
*173 _138_
*174 _139_
*175 _140_
*176 _141_
*177 _142_
*178 _143_
*179 _144_
*180 _145_
*181 _146_
*182 _147_
*183 _148_
*184 _149_
*185 _150_
*186 _151_
*187 _152_
*188 _153_
*189 _154_
*190 _155_
*191 _156_
*192 _157_
*193 _158_
*194 _159_
*195 _160_
*196 _161_
*197 _162_
*198 _163_
*199 _164_
*200 _165_
*201 _166_
*202 _167_
*203 _168_
*204 _169_
*205 _170_
*206 _171_
*207 _172_
*208 _173_
*209 _174_
*210 _175_
*211 _176_
*212 _177_
*213 _178_
*214 _179_
*215 _180_
*216 _181_
*217 _182_
*218 _183_
*219 _184_
*220 _185_
*221 _186_
*222 _187_
*223 _188_
*224 _189_
*225 _190_
*226 _191_
*227 _192_
*228 _193_
*229 _194_
*230 _195_
*231 _196_
*232 _197_
*233 _198_
*234 _199_
*235 _200_
*236 _201_
*237 _202_
*238 _203_
*239 _204_
*240 _205_
*241 _206_
*242 _207_
*243 _208_
*244 _209_
*245 _210_
*246 _211_
*247 _212_
*248 _213_
*249 _214_
*250 _215_
*251 _216_
*252 _217_
*253 _218_
*254 _219_
*255 _220_
*256 _221_
*257 _222_
*258 _223_
*259 _224_
*260 _225_
*261 _226_
*262 _227_
*263 _228_
*264 _229_
*265 _230_
*266 _231_
*267 _232_
*268 _233_
*269 _234_
*270 _235_
*271 _236_
*272 _237_
*273 _238_
*274 _239_
*275 _240_
*276 _241_
*277 _242_
*278 _243_
*279 _244_
*280 _245_
*281 _246_
*282 _247_
*283 _248_
*284 _249_
*285 _250_
*286 _251_
*287 _252_
*288 _253_
*289 _254_
*290 _255_
*291 _256_
*292 _257_
*293 _258_
*294 _259_
*295 _260_
*296 _261_
*297 _262_
*298 _263_
*299 _264_
*300 _265_
*301 _266_
*302 _267_
*303 _268_
*304 _269_
*305 _270_
*306 _271_
*307 _272_
*308 net1
*309 net10
*310 net11
*311 net12
*312 net13
*313 net14
*314 net15
*315 net16
*316 net17
*317 net18
*318 net19
*319 net2
*320 net20
*321 net21
*322 net22
*323 net23
*324 net24
*325 net25
*326 net26
*327 net27
*328 net28
*329 net29
*330 net3
*331 net30
*332 net31
*333 net32
*334 net33
*335 net34
*336 net35
*337 net36
*338 net37
*339 net38
*340 net39
*341 net4
*342 net40
*343 net41
*344 net42
*345 net43
*346 net44
*347 net45
*348 net46
*349 net47
*350 net48
*351 net49
*352 net5
*353 net50
*354 net51
*355 net52
*356 net53
*357 net55
*358 net56
*359 net57
*360 net58
*361 net59
*362 net6
*363 net60
*364 net61
*365 net62
*366 net63
*367 net64
*368 net65
*369 net66
*370 net67
*371 net69
*372 net7
*373 net8
*374 net9
*375 FILLER_0_109
*376 FILLER_0_113
*377 FILLER_0_125
*378 FILLER_0_132
*379 FILLER_0_141
*380 FILLER_0_15
*381 FILLER_0_153
*382 FILLER_0_161
*383 FILLER_0_167
*384 FILLER_0_169
*385 FILLER_0_175
*386 FILLER_0_184
*387 FILLER_0_188
*388 FILLER_0_197
*389 FILLER_0_209
*390 FILLER_0_221
*391 FILLER_0_225
*392 FILLER_0_237
*393 FILLER_0_249
*394 FILLER_0_253
*395 FILLER_0_265
*396 FILLER_0_27
*397 FILLER_0_273
*398 FILLER_0_279
*399 FILLER_0_281
*400 FILLER_0_287
*401 FILLER_0_29
*402 FILLER_0_299
*403 FILLER_0_3
*404 FILLER_0_307
*405 FILLER_0_309
*406 FILLER_0_317
*407 FILLER_0_329
*408 FILLER_0_335
*409 FILLER_0_337
*410 FILLER_0_349
*411 FILLER_0_361
*412 FILLER_0_365
*413 FILLER_0_377
*414 FILLER_0_389
*415 FILLER_0_393
*416 FILLER_0_405
*417 FILLER_0_41
*418 FILLER_0_53
*419 FILLER_0_57
*420 FILLER_0_69
*421 FILLER_0_81
*422 FILLER_0_85
*423 FILLER_0_97
*424 FILLER_10_109
*425 FILLER_10_115
*426 FILLER_10_125
*427 FILLER_10_137
*428 FILLER_10_15
*429 FILLER_10_154
*430 FILLER_10_166
*431 FILLER_10_175
*432 FILLER_10_187
*433 FILLER_10_195
*434 FILLER_10_197
*435 FILLER_10_209
*436 FILLER_10_221
*437 FILLER_10_233
*438 FILLER_10_245
*439 FILLER_10_251
*440 FILLER_10_253
*441 FILLER_10_265
*442 FILLER_10_27
*443 FILLER_10_277
*444 FILLER_10_289
*445 FILLER_10_29
*446 FILLER_10_3
*447 FILLER_10_301
*448 FILLER_10_307
*449 FILLER_10_309
*450 FILLER_10_321
*451 FILLER_10_333
*452 FILLER_10_345
*453 FILLER_10_357
*454 FILLER_10_363
*455 FILLER_10_365
*456 FILLER_10_377
*457 FILLER_10_389
*458 FILLER_10_401
*459 FILLER_10_41
*460 FILLER_10_53
*461 FILLER_10_65
*462 FILLER_10_77
*463 FILLER_10_83
*464 FILLER_10_85
*465 FILLER_10_97
*466 FILLER_11_105
*467 FILLER_11_111
*468 FILLER_11_113
*469 FILLER_11_125
*470 FILLER_11_137
*471 FILLER_11_149
*472 FILLER_11_15
*473 FILLER_11_161
*474 FILLER_11_167
*475 FILLER_11_169
*476 FILLER_11_181
*477 FILLER_11_193
*478 FILLER_11_205
*479 FILLER_11_217
*480 FILLER_11_223
*481 FILLER_11_225
*482 FILLER_11_237
*483 FILLER_11_249
*484 FILLER_11_261
*485 FILLER_11_27
*486 FILLER_11_273
*487 FILLER_11_279
*488 FILLER_11_281
*489 FILLER_11_293
*490 FILLER_11_3
*491 FILLER_11_305
*492 FILLER_11_317
*493 FILLER_11_329
*494 FILLER_11_335
*495 FILLER_11_337
*496 FILLER_11_349
*497 FILLER_11_361
*498 FILLER_11_373
*499 FILLER_11_385
*500 FILLER_11_39
*501 FILLER_11_391
*502 FILLER_11_393
*503 FILLER_11_405
*504 FILLER_11_51
*505 FILLER_11_55
*506 FILLER_11_57
*507 FILLER_11_69
*508 FILLER_11_81
*509 FILLER_11_93
*510 FILLER_12_101
*511 FILLER_12_122
*512 FILLER_12_134
*513 FILLER_12_141
*514 FILLER_12_15
*515 FILLER_12_153
*516 FILLER_12_169
*517 FILLER_12_181
*518 FILLER_12_193
*519 FILLER_12_197
*520 FILLER_12_209
*521 FILLER_12_221
*522 FILLER_12_233
*523 FILLER_12_245
*524 FILLER_12_251
*525 FILLER_12_253
*526 FILLER_12_265
*527 FILLER_12_27
*528 FILLER_12_277
*529 FILLER_12_289
*530 FILLER_12_29
*531 FILLER_12_3
*532 FILLER_12_301
*533 FILLER_12_307
*534 FILLER_12_309
*535 FILLER_12_321
*536 FILLER_12_333
*537 FILLER_12_345
*538 FILLER_12_357
*539 FILLER_12_363
*540 FILLER_12_365
*541 FILLER_12_377
*542 FILLER_12_389
*543 FILLER_12_401
*544 FILLER_12_41
*545 FILLER_12_53
*546 FILLER_12_65
*547 FILLER_12_77
*548 FILLER_12_83
*549 FILLER_12_85
*550 FILLER_12_93
*551 FILLER_13_109
*552 FILLER_13_113
*553 FILLER_13_128
*554 FILLER_13_134
*555 FILLER_13_147
*556 FILLER_13_15
*557 FILLER_13_161
*558 FILLER_13_167
*559 FILLER_13_169
*560 FILLER_13_181
*561 FILLER_13_193
*562 FILLER_13_197
*563 FILLER_13_205
*564 FILLER_13_217
*565 FILLER_13_223
*566 FILLER_13_225
*567 FILLER_13_237
*568 FILLER_13_250
*569 FILLER_13_262
*570 FILLER_13_27
*571 FILLER_13_274
*572 FILLER_13_281
*573 FILLER_13_293
*574 FILLER_13_3
*575 FILLER_13_305
*576 FILLER_13_317
*577 FILLER_13_329
*578 FILLER_13_335
*579 FILLER_13_337
*580 FILLER_13_349
*581 FILLER_13_361
*582 FILLER_13_373
*583 FILLER_13_385
*584 FILLER_13_39
*585 FILLER_13_391
*586 FILLER_13_393
*587 FILLER_13_405
*588 FILLER_13_51
*589 FILLER_13_55
*590 FILLER_13_57
*591 FILLER_13_69
*592 FILLER_13_81
*593 FILLER_13_89
*594 FILLER_14_103
*595 FILLER_14_121
*596 FILLER_14_133
*597 FILLER_14_139
*598 FILLER_14_141
*599 FILLER_14_15
*600 FILLER_14_169
*601 FILLER_14_181
*602 FILLER_14_202
*603 FILLER_14_210
*604 FILLER_14_218
*605 FILLER_14_226
*606 FILLER_14_242
*607 FILLER_14_247
*608 FILLER_14_251
*609 FILLER_14_253
*610 FILLER_14_265
*611 FILLER_14_27
*612 FILLER_14_277
*613 FILLER_14_289
*614 FILLER_14_29
*615 FILLER_14_3
*616 FILLER_14_301
*617 FILLER_14_307
*618 FILLER_14_309
*619 FILLER_14_321
*620 FILLER_14_333
*621 FILLER_14_345
*622 FILLER_14_357
*623 FILLER_14_363
*624 FILLER_14_365
*625 FILLER_14_377
*626 FILLER_14_389
*627 FILLER_14_401
*628 FILLER_14_41
*629 FILLER_14_53
*630 FILLER_14_65
*631 FILLER_14_77
*632 FILLER_14_83
*633 FILLER_14_85
*634 FILLER_14_89
*635 FILLER_15_109
*636 FILLER_15_113
*637 FILLER_15_125
*638 FILLER_15_137
*639 FILLER_15_149
*640 FILLER_15_15
*641 FILLER_15_157
*642 FILLER_15_162
*643 FILLER_15_169
*644 FILLER_15_181
*645 FILLER_15_193
*646 FILLER_15_205
*647 FILLER_15_213
*648 FILLER_15_217
*649 FILLER_15_232
*650 FILLER_15_244
*651 FILLER_15_256
*652 FILLER_15_268
*653 FILLER_15_27
*654 FILLER_15_281
*655 FILLER_15_293
*656 FILLER_15_3
*657 FILLER_15_305
*658 FILLER_15_317
*659 FILLER_15_329
*660 FILLER_15_335
*661 FILLER_15_337
*662 FILLER_15_349
*663 FILLER_15_361
*664 FILLER_15_373
*665 FILLER_15_385
*666 FILLER_15_39
*667 FILLER_15_391
*668 FILLER_15_393
*669 FILLER_15_405
*670 FILLER_15_51
*671 FILLER_15_55
*672 FILLER_15_57
*673 FILLER_15_69
*674 FILLER_15_81
*675 FILLER_15_85
*676 FILLER_15_89
*677 FILLER_16_105
*678 FILLER_16_117
*679 FILLER_16_129
*680 FILLER_16_137
*681 FILLER_16_15
*682 FILLER_16_153
*683 FILLER_16_165
*684 FILLER_16_177
*685 FILLER_16_189
*686 FILLER_16_195
*687 FILLER_16_197
*688 FILLER_16_209
*689 FILLER_16_221
*690 FILLER_16_233
*691 FILLER_16_245
*692 FILLER_16_251
*693 FILLER_16_253
*694 FILLER_16_265
*695 FILLER_16_27
*696 FILLER_16_277
*697 FILLER_16_289
*698 FILLER_16_29
*699 FILLER_16_3
*700 FILLER_16_301
*701 FILLER_16_307
*702 FILLER_16_309
*703 FILLER_16_321
*704 FILLER_16_333
*705 FILLER_16_345
*706 FILLER_16_357
*707 FILLER_16_363
*708 FILLER_16_365
*709 FILLER_16_377
*710 FILLER_16_389
*711 FILLER_16_401
*712 FILLER_16_41
*713 FILLER_16_53
*714 FILLER_16_65
*715 FILLER_16_77
*716 FILLER_16_83
*717 FILLER_16_85
*718 FILLER_16_89
*719 FILLER_16_93
*720 FILLER_17_105
*721 FILLER_17_111
*722 FILLER_17_113
*723 FILLER_17_125
*724 FILLER_17_137
*725 FILLER_17_15
*726 FILLER_17_156
*727 FILLER_17_169
*728 FILLER_17_181
*729 FILLER_17_193
*730 FILLER_17_205
*731 FILLER_17_217
*732 FILLER_17_223
*733 FILLER_17_225
*734 FILLER_17_237
*735 FILLER_17_249
*736 FILLER_17_261
*737 FILLER_17_27
*738 FILLER_17_273
*739 FILLER_17_279
*740 FILLER_17_281
*741 FILLER_17_293
*742 FILLER_17_3
*743 FILLER_17_305
*744 FILLER_17_317
*745 FILLER_17_329
*746 FILLER_17_335
*747 FILLER_17_337
*748 FILLER_17_349
*749 FILLER_17_361
*750 FILLER_17_373
*751 FILLER_17_385
*752 FILLER_17_39
*753 FILLER_17_391
*754 FILLER_17_393
*755 FILLER_17_405
*756 FILLER_17_51
*757 FILLER_17_55
*758 FILLER_17_57
*759 FILLER_17_69
*760 FILLER_17_81
*761 FILLER_17_93
*762 FILLER_18_102
*763 FILLER_18_114
*764 FILLER_18_126
*765 FILLER_18_134
*766 FILLER_18_141
*767 FILLER_18_145
*768 FILLER_18_15
*769 FILLER_18_157
*770 FILLER_18_169
*771 FILLER_18_181
*772 FILLER_18_189
*773 FILLER_18_195
*774 FILLER_18_197
*775 FILLER_18_209
*776 FILLER_18_221
*777 FILLER_18_233
*778 FILLER_18_245
*779 FILLER_18_251
*780 FILLER_18_253
*781 FILLER_18_265
*782 FILLER_18_27
*783 FILLER_18_277
*784 FILLER_18_289
*785 FILLER_18_29
*786 FILLER_18_3
*787 FILLER_18_301
*788 FILLER_18_307
*789 FILLER_18_309
*790 FILLER_18_321
*791 FILLER_18_333
*792 FILLER_18_345
*793 FILLER_18_357
*794 FILLER_18_363
*795 FILLER_18_365
*796 FILLER_18_377
*797 FILLER_18_389
*798 FILLER_18_401
*799 FILLER_18_41
*800 FILLER_18_53
*801 FILLER_18_65
*802 FILLER_18_77
*803 FILLER_18_83
*804 FILLER_18_85
*805 FILLER_18_91
*806 FILLER_18_96
*807 FILLER_19_106
*808 FILLER_19_113
*809 FILLER_19_125
*810 FILLER_19_129
*811 FILLER_19_134
*812 FILLER_19_142
*813 FILLER_19_149
*814 FILLER_19_161
*815 FILLER_19_167
*816 FILLER_19_169
*817 FILLER_19_19
*818 FILLER_19_195
*819 FILLER_19_209
*820 FILLER_19_221
*821 FILLER_19_225
*822 FILLER_19_237
*823 FILLER_19_249
*824 FILLER_19_261
*825 FILLER_19_273
*826 FILLER_19_279
*827 FILLER_19_281
*828 FILLER_19_293
*829 FILLER_19_305
*830 FILLER_19_31
*831 FILLER_19_317
*832 FILLER_19_329
*833 FILLER_19_335
*834 FILLER_19_337
*835 FILLER_19_349
*836 FILLER_19_361
*837 FILLER_19_373
*838 FILLER_19_385
*839 FILLER_19_391
*840 FILLER_19_393
*841 FILLER_19_405
*842 FILLER_19_43
*843 FILLER_19_55
*844 FILLER_19_57
*845 FILLER_19_69
*846 FILLER_19_7
*847 FILLER_19_81
*848 FILLER_19_93
*849 FILLER_19_97
*850 FILLER_1_105
*851 FILLER_1_111
*852 FILLER_1_113
*853 FILLER_1_119
*854 FILLER_1_131
*855 FILLER_1_143
*856 FILLER_1_15
*857 FILLER_1_155
*858 FILLER_1_167
*859 FILLER_1_169
*860 FILLER_1_181
*861 FILLER_1_193
*862 FILLER_1_205
*863 FILLER_1_217
*864 FILLER_1_223
*865 FILLER_1_225
*866 FILLER_1_237
*867 FILLER_1_249
*868 FILLER_1_261
*869 FILLER_1_27
*870 FILLER_1_273
*871 FILLER_1_279
*872 FILLER_1_281
*873 FILLER_1_293
*874 FILLER_1_3
*875 FILLER_1_305
*876 FILLER_1_317
*877 FILLER_1_329
*878 FILLER_1_335
*879 FILLER_1_337
*880 FILLER_1_349
*881 FILLER_1_361
*882 FILLER_1_373
*883 FILLER_1_385
*884 FILLER_1_39
*885 FILLER_1_391
*886 FILLER_1_393
*887 FILLER_1_405
*888 FILLER_1_51
*889 FILLER_1_55
*890 FILLER_1_57
*891 FILLER_1_69
*892 FILLER_1_81
*893 FILLER_1_93
*894 FILLER_20_109
*895 FILLER_20_121
*896 FILLER_20_133
*897 FILLER_20_139
*898 FILLER_20_148
*899 FILLER_20_15
*900 FILLER_20_160
*901 FILLER_20_172
*902 FILLER_20_190
*903 FILLER_20_214
*904 FILLER_20_226
*905 FILLER_20_238
*906 FILLER_20_250
*907 FILLER_20_253
*908 FILLER_20_257
*909 FILLER_20_264
*910 FILLER_20_27
*911 FILLER_20_276
*912 FILLER_20_288
*913 FILLER_20_29
*914 FILLER_20_3
*915 FILLER_20_300
*916 FILLER_20_309
*917 FILLER_20_321
*918 FILLER_20_333
*919 FILLER_20_345
*920 FILLER_20_357
*921 FILLER_20_363
*922 FILLER_20_365
*923 FILLER_20_377
*924 FILLER_20_389
*925 FILLER_20_401
*926 FILLER_20_41
*927 FILLER_20_53
*928 FILLER_20_65
*929 FILLER_20_77
*930 FILLER_20_83
*931 FILLER_20_85
*932 FILLER_20_97
*933 FILLER_21_105
*934 FILLER_21_111
*935 FILLER_21_113
*936 FILLER_21_125
*937 FILLER_21_150
*938 FILLER_21_162
*939 FILLER_21_169
*940 FILLER_21_177
*941 FILLER_21_186
*942 FILLER_21_19
*943 FILLER_21_201
*944 FILLER_21_213
*945 FILLER_21_221
*946 FILLER_21_234
*947 FILLER_21_246
*948 FILLER_21_250
*949 FILLER_21_271
*950 FILLER_21_279
*951 FILLER_21_281
*952 FILLER_21_293
*953 FILLER_21_305
*954 FILLER_21_31
*955 FILLER_21_317
*956 FILLER_21_329
*957 FILLER_21_335
*958 FILLER_21_337
*959 FILLER_21_349
*960 FILLER_21_361
*961 FILLER_21_373
*962 FILLER_21_385
*963 FILLER_21_391
*964 FILLER_21_393
*965 FILLER_21_43
*966 FILLER_21_55
*967 FILLER_21_57
*968 FILLER_21_69
*969 FILLER_21_7
*970 FILLER_21_81
*971 FILLER_21_93
*972 FILLER_22_109
*973 FILLER_22_121
*974 FILLER_22_133
*975 FILLER_22_15
*976 FILLER_22_153
*977 FILLER_22_165
*978 FILLER_22_177
*979 FILLER_22_184
*980 FILLER_22_190
*981 FILLER_22_194
*982 FILLER_22_197
*983 FILLER_22_209
*984 FILLER_22_220
*985 FILLER_22_232
*986 FILLER_22_238
*987 FILLER_22_253
*988 FILLER_22_265
*989 FILLER_22_27
*990 FILLER_22_277
*991 FILLER_22_289
*992 FILLER_22_29
*993 FILLER_22_3
*994 FILLER_22_301
*995 FILLER_22_307
*996 FILLER_22_309
*997 FILLER_22_321
*998 FILLER_22_333
*999 FILLER_22_345
*1000 FILLER_22_357
*1001 FILLER_22_363
*1002 FILLER_22_365
*1003 FILLER_22_377
*1004 FILLER_22_389
*1005 FILLER_22_401
*1006 FILLER_22_41
*1007 FILLER_22_53
*1008 FILLER_22_65
*1009 FILLER_22_77
*1010 FILLER_22_83
*1011 FILLER_22_85
*1012 FILLER_22_97
*1013 FILLER_23_102
*1014 FILLER_23_110
*1015 FILLER_23_113
*1016 FILLER_23_125
*1017 FILLER_23_137
*1018 FILLER_23_149
*1019 FILLER_23_15
*1020 FILLER_23_161
*1021 FILLER_23_167
*1022 FILLER_23_169
*1023 FILLER_23_181
*1024 FILLER_23_193
*1025 FILLER_23_205
*1026 FILLER_23_217
*1027 FILLER_23_223
*1028 FILLER_23_225
*1029 FILLER_23_246
*1030 FILLER_23_258
*1031 FILLER_23_27
*1032 FILLER_23_270
*1033 FILLER_23_278
*1034 FILLER_23_281
*1035 FILLER_23_293
*1036 FILLER_23_3
*1037 FILLER_23_305
*1038 FILLER_23_317
*1039 FILLER_23_329
*1040 FILLER_23_335
*1041 FILLER_23_337
*1042 FILLER_23_349
*1043 FILLER_23_361
*1044 FILLER_23_373
*1045 FILLER_23_385
*1046 FILLER_23_39
*1047 FILLER_23_391
*1048 FILLER_23_393
*1049 FILLER_23_405
*1050 FILLER_23_51
*1051 FILLER_23_55
*1052 FILLER_23_57
*1053 FILLER_23_69
*1054 FILLER_23_81
*1055 FILLER_23_85
*1056 FILLER_24_104
*1057 FILLER_24_116
*1058 FILLER_24_128
*1059 FILLER_24_141
*1060 FILLER_24_15
*1061 FILLER_24_153
*1062 FILLER_24_165
*1063 FILLER_24_177
*1064 FILLER_24_189
*1065 FILLER_24_195
*1066 FILLER_24_197
*1067 FILLER_24_209
*1068 FILLER_24_221
*1069 FILLER_24_233
*1070 FILLER_24_245
*1071 FILLER_24_251
*1072 FILLER_24_253
*1073 FILLER_24_265
*1074 FILLER_24_27
*1075 FILLER_24_277
*1076 FILLER_24_289
*1077 FILLER_24_29
*1078 FILLER_24_3
*1079 FILLER_24_301
*1080 FILLER_24_307
*1081 FILLER_24_309
*1082 FILLER_24_321
*1083 FILLER_24_333
*1084 FILLER_24_345
*1085 FILLER_24_357
*1086 FILLER_24_363
*1087 FILLER_24_365
*1088 FILLER_24_377
*1089 FILLER_24_389
*1090 FILLER_24_401
*1091 FILLER_24_41
*1092 FILLER_24_53
*1093 FILLER_24_65
*1094 FILLER_24_77
*1095 FILLER_24_83
*1096 FILLER_25_105
*1097 FILLER_25_111
*1098 FILLER_25_113
*1099 FILLER_25_125
*1100 FILLER_25_137
*1101 FILLER_25_149
*1102 FILLER_25_15
*1103 FILLER_25_161
*1104 FILLER_25_167
*1105 FILLER_25_169
*1106 FILLER_25_181
*1107 FILLER_25_193
*1108 FILLER_25_199
*1109 FILLER_25_207
*1110 FILLER_25_219
*1111 FILLER_25_223
*1112 FILLER_25_225
*1113 FILLER_25_237
*1114 FILLER_25_249
*1115 FILLER_25_261
*1116 FILLER_25_27
*1117 FILLER_25_273
*1118 FILLER_25_279
*1119 FILLER_25_281
*1120 FILLER_25_293
*1121 FILLER_25_3
*1122 FILLER_25_305
*1123 FILLER_25_317
*1124 FILLER_25_329
*1125 FILLER_25_335
*1126 FILLER_25_337
*1127 FILLER_25_349
*1128 FILLER_25_361
*1129 FILLER_25_373
*1130 FILLER_25_385
*1131 FILLER_25_39
*1132 FILLER_25_391
*1133 FILLER_25_393
*1134 FILLER_25_405
*1135 FILLER_25_51
*1136 FILLER_25_55
*1137 FILLER_25_57
*1138 FILLER_25_69
*1139 FILLER_25_81
*1140 FILLER_25_93
*1141 FILLER_26_109
*1142 FILLER_26_117
*1143 FILLER_26_122
*1144 FILLER_26_131
*1145 FILLER_26_139
*1146 FILLER_26_141
*1147 FILLER_26_15
*1148 FILLER_26_153
*1149 FILLER_26_165
*1150 FILLER_26_177
*1151 FILLER_26_189
*1152 FILLER_26_195
*1153 FILLER_26_197
*1154 FILLER_26_201
*1155 FILLER_26_213
*1156 FILLER_26_225
*1157 FILLER_26_237
*1158 FILLER_26_245
*1159 FILLER_26_251
*1160 FILLER_26_262
*1161 FILLER_26_27
*1162 FILLER_26_274
*1163 FILLER_26_286
*1164 FILLER_26_29
*1165 FILLER_26_298
*1166 FILLER_26_3
*1167 FILLER_26_306
*1168 FILLER_26_309
*1169 FILLER_26_321
*1170 FILLER_26_333
*1171 FILLER_26_345
*1172 FILLER_26_357
*1173 FILLER_26_363
*1174 FILLER_26_365
*1175 FILLER_26_377
*1176 FILLER_26_389
*1177 FILLER_26_401
*1178 FILLER_26_41
*1179 FILLER_26_53
*1180 FILLER_26_65
*1181 FILLER_26_73
*1182 FILLER_26_79
*1183 FILLER_26_83
*1184 FILLER_26_85
*1185 FILLER_26_97
*1186 FILLER_27_103
*1187 FILLER_27_111
*1188 FILLER_27_113
*1189 FILLER_27_125
*1190 FILLER_27_137
*1191 FILLER_27_149
*1192 FILLER_27_15
*1193 FILLER_27_155
*1194 FILLER_27_159
*1195 FILLER_27_165
*1196 FILLER_27_169
*1197 FILLER_27_181
*1198 FILLER_27_185
*1199 FILLER_27_199
*1200 FILLER_27_211
*1201 FILLER_27_223
*1202 FILLER_27_225
*1203 FILLER_27_237
*1204 FILLER_27_249
*1205 FILLER_27_261
*1206 FILLER_27_27
*1207 FILLER_27_273
*1208 FILLER_27_279
*1209 FILLER_27_281
*1210 FILLER_27_293
*1211 FILLER_27_3
*1212 FILLER_27_305
*1213 FILLER_27_317
*1214 FILLER_27_329
*1215 FILLER_27_335
*1216 FILLER_27_337
*1217 FILLER_27_349
*1218 FILLER_27_361
*1219 FILLER_27_373
*1220 FILLER_27_385
*1221 FILLER_27_39
*1222 FILLER_27_391
*1223 FILLER_27_393
*1224 FILLER_27_405
*1225 FILLER_27_51
*1226 FILLER_27_55
*1227 FILLER_27_57
*1228 FILLER_27_69
*1229 FILLER_27_91
*1230 FILLER_28_109
*1231 FILLER_28_118
*1232 FILLER_28_130
*1233 FILLER_28_138
*1234 FILLER_28_141
*1235 FILLER_28_15
*1236 FILLER_28_153
*1237 FILLER_28_167
*1238 FILLER_28_192
*1239 FILLER_28_197
*1240 FILLER_28_212
*1241 FILLER_28_224
*1242 FILLER_28_232
*1243 FILLER_28_240
*1244 FILLER_28_253
*1245 FILLER_28_265
*1246 FILLER_28_27
*1247 FILLER_28_274
*1248 FILLER_28_282
*1249 FILLER_28_29
*1250 FILLER_28_294
*1251 FILLER_28_3
*1252 FILLER_28_306
*1253 FILLER_28_309
*1254 FILLER_28_321
*1255 FILLER_28_333
*1256 FILLER_28_345
*1257 FILLER_28_357
*1258 FILLER_28_363
*1259 FILLER_28_365
*1260 FILLER_28_377
*1261 FILLER_28_389
*1262 FILLER_28_401
*1263 FILLER_28_41
*1264 FILLER_28_53
*1265 FILLER_28_65
*1266 FILLER_28_77
*1267 FILLER_28_83
*1268 FILLER_28_85
*1269 FILLER_28_97
*1270 FILLER_29_100
*1271 FILLER_29_113
*1272 FILLER_29_125
*1273 FILLER_29_137
*1274 FILLER_29_149
*1275 FILLER_29_15
*1276 FILLER_29_153
*1277 FILLER_29_159
*1278 FILLER_29_167
*1279 FILLER_29_174
*1280 FILLER_29_186
*1281 FILLER_29_198
*1282 FILLER_29_209
*1283 FILLER_29_222
*1284 FILLER_29_234
*1285 FILLER_29_246
*1286 FILLER_29_258
*1287 FILLER_29_27
*1288 FILLER_29_270
*1289 FILLER_29_278
*1290 FILLER_29_281
*1291 FILLER_29_293
*1292 FILLER_29_3
*1293 FILLER_29_305
*1294 FILLER_29_317
*1295 FILLER_29_329
*1296 FILLER_29_335
*1297 FILLER_29_337
*1298 FILLER_29_349
*1299 FILLER_29_361
*1300 FILLER_29_373
*1301 FILLER_29_385
*1302 FILLER_29_39
*1303 FILLER_29_391
*1304 FILLER_29_393
*1305 FILLER_29_51
*1306 FILLER_29_55
*1307 FILLER_29_57
*1308 FILLER_29_69
*1309 FILLER_29_77
*1310 FILLER_29_88
*1311 FILLER_2_109
*1312 FILLER_2_121
*1313 FILLER_2_133
*1314 FILLER_2_139
*1315 FILLER_2_141
*1316 FILLER_2_15
*1317 FILLER_2_153
*1318 FILLER_2_165
*1319 FILLER_2_177
*1320 FILLER_2_185
*1321 FILLER_2_207
*1322 FILLER_2_219
*1323 FILLER_2_226
*1324 FILLER_2_235
*1325 FILLER_2_247
*1326 FILLER_2_251
*1327 FILLER_2_253
*1328 FILLER_2_265
*1329 FILLER_2_27
*1330 FILLER_2_277
*1331 FILLER_2_289
*1332 FILLER_2_29
*1333 FILLER_2_3
*1334 FILLER_2_301
*1335 FILLER_2_307
*1336 FILLER_2_309
*1337 FILLER_2_321
*1338 FILLER_2_333
*1339 FILLER_2_345
*1340 FILLER_2_357
*1341 FILLER_2_363
*1342 FILLER_2_365
*1343 FILLER_2_377
*1344 FILLER_2_389
*1345 FILLER_2_401
*1346 FILLER_2_41
*1347 FILLER_2_53
*1348 FILLER_2_65
*1349 FILLER_2_77
*1350 FILLER_2_83
*1351 FILLER_2_85
*1352 FILLER_2_97
*1353 FILLER_30_109
*1354 FILLER_30_117
*1355 FILLER_30_128
*1356 FILLER_30_141
*1357 FILLER_30_15
*1358 FILLER_30_153
*1359 FILLER_30_159
*1360 FILLER_30_164
*1361 FILLER_30_176
*1362 FILLER_30_188
*1363 FILLER_30_197
*1364 FILLER_30_209
*1365 FILLER_30_221
*1366 FILLER_30_229
*1367 FILLER_30_240
*1368 FILLER_30_27
*1369 FILLER_30_276
*1370 FILLER_30_288
*1371 FILLER_30_29
*1372 FILLER_30_3
*1373 FILLER_30_300
*1374 FILLER_30_309
*1375 FILLER_30_321
*1376 FILLER_30_333
*1377 FILLER_30_345
*1378 FILLER_30_357
*1379 FILLER_30_363
*1380 FILLER_30_365
*1381 FILLER_30_377
*1382 FILLER_30_389
*1383 FILLER_30_401
*1384 FILLER_30_41
*1385 FILLER_30_53
*1386 FILLER_30_65
*1387 FILLER_30_77
*1388 FILLER_30_83
*1389 FILLER_30_85
*1390 FILLER_30_97
*1391 FILLER_31_101
*1392 FILLER_31_109
*1393 FILLER_31_113
*1394 FILLER_31_125
*1395 FILLER_31_137
*1396 FILLER_31_149
*1397 FILLER_31_15
*1398 FILLER_31_153
*1399 FILLER_31_157
*1400 FILLER_31_165
*1401 FILLER_31_169
*1402 FILLER_31_181
*1403 FILLER_31_193
*1404 FILLER_31_205
*1405 FILLER_31_217
*1406 FILLER_31_223
*1407 FILLER_31_225
*1408 FILLER_31_237
*1409 FILLER_31_249
*1410 FILLER_31_27
*1411 FILLER_31_276
*1412 FILLER_31_288
*1413 FILLER_31_3
*1414 FILLER_31_300
*1415 FILLER_31_312
*1416 FILLER_31_324
*1417 FILLER_31_337
*1418 FILLER_31_349
*1419 FILLER_31_361
*1420 FILLER_31_373
*1421 FILLER_31_385
*1422 FILLER_31_39
*1423 FILLER_31_391
*1424 FILLER_31_393
*1425 FILLER_31_405
*1426 FILLER_31_51
*1427 FILLER_31_55
*1428 FILLER_31_57
*1429 FILLER_31_63
*1430 FILLER_31_81
*1431 FILLER_31_93
*1432 FILLER_32_109
*1433 FILLER_32_121
*1434 FILLER_32_133
*1435 FILLER_32_139
*1436 FILLER_32_141
*1437 FILLER_32_153
*1438 FILLER_32_165
*1439 FILLER_32_177
*1440 FILLER_32_18
*1441 FILLER_32_189
*1442 FILLER_32_195
*1443 FILLER_32_197
*1444 FILLER_32_209
*1445 FILLER_32_221
*1446 FILLER_32_229
*1447 FILLER_32_235
*1448 FILLER_32_247
*1449 FILLER_32_251
*1450 FILLER_32_253
*1451 FILLER_32_26
*1452 FILLER_32_265
*1453 FILLER_32_277
*1454 FILLER_32_289
*1455 FILLER_32_29
*1456 FILLER_32_301
*1457 FILLER_32_307
*1458 FILLER_32_309
*1459 FILLER_32_321
*1460 FILLER_32_333
*1461 FILLER_32_345
*1462 FILLER_32_357
*1463 FILLER_32_363
*1464 FILLER_32_365
*1465 FILLER_32_377
*1466 FILLER_32_389
*1467 FILLER_32_401
*1468 FILLER_32_41
*1469 FILLER_32_53
*1470 FILLER_32_6
*1471 FILLER_32_61
*1472 FILLER_32_76
*1473 FILLER_32_85
*1474 FILLER_32_97
*1475 FILLER_33_101
*1476 FILLER_33_109
*1477 FILLER_33_113
*1478 FILLER_33_125
*1479 FILLER_33_137
*1480 FILLER_33_149
*1481 FILLER_33_15
*1482 FILLER_33_161
*1483 FILLER_33_167
*1484 FILLER_33_169
*1485 FILLER_33_181
*1486 FILLER_33_193
*1487 FILLER_33_205
*1488 FILLER_33_217
*1489 FILLER_33_223
*1490 FILLER_33_225
*1491 FILLER_33_237
*1492 FILLER_33_249
*1493 FILLER_33_261
*1494 FILLER_33_27
*1495 FILLER_33_273
*1496 FILLER_33_279
*1497 FILLER_33_281
*1498 FILLER_33_293
*1499 FILLER_33_3
*1500 FILLER_33_305
*1501 FILLER_33_317
*1502 FILLER_33_329
*1503 FILLER_33_335
*1504 FILLER_33_337
*1505 FILLER_33_349
*1506 FILLER_33_361
*1507 FILLER_33_373
*1508 FILLER_33_385
*1509 FILLER_33_39
*1510 FILLER_33_391
*1511 FILLER_33_393
*1512 FILLER_33_405
*1513 FILLER_33_51
*1514 FILLER_33_55
*1515 FILLER_33_57
*1516 FILLER_33_61
*1517 FILLER_33_77
*1518 FILLER_33_89
*1519 FILLER_34_109
*1520 FILLER_34_121
*1521 FILLER_34_133
*1522 FILLER_34_139
*1523 FILLER_34_141
*1524 FILLER_34_15
*1525 FILLER_34_153
*1526 FILLER_34_165
*1527 FILLER_34_169
*1528 FILLER_34_183
*1529 FILLER_34_191
*1530 FILLER_34_208
*1531 FILLER_34_220
*1532 FILLER_34_232
*1533 FILLER_34_244
*1534 FILLER_34_253
*1535 FILLER_34_265
*1536 FILLER_34_27
*1537 FILLER_34_277
*1538 FILLER_34_289
*1539 FILLER_34_29
*1540 FILLER_34_3
*1541 FILLER_34_301
*1542 FILLER_34_307
*1543 FILLER_34_309
*1544 FILLER_34_321
*1545 FILLER_34_333
*1546 FILLER_34_345
*1547 FILLER_34_357
*1548 FILLER_34_363
*1549 FILLER_34_365
*1550 FILLER_34_377
*1551 FILLER_34_389
*1552 FILLER_34_397
*1553 FILLER_34_41
*1554 FILLER_34_53
*1555 FILLER_34_65
*1556 FILLER_34_77
*1557 FILLER_34_83
*1558 FILLER_34_85
*1559 FILLER_34_97
*1560 FILLER_35_105
*1561 FILLER_35_111
*1562 FILLER_35_113
*1563 FILLER_35_117
*1564 FILLER_35_131
*1565 FILLER_35_143
*1566 FILLER_35_149
*1567 FILLER_35_15
*1568 FILLER_35_153
*1569 FILLER_35_161
*1570 FILLER_35_169
*1571 FILLER_35_177
*1572 FILLER_35_225
*1573 FILLER_35_237
*1574 FILLER_35_245
*1575 FILLER_35_255
*1576 FILLER_35_267
*1577 FILLER_35_27
*1578 FILLER_35_279
*1579 FILLER_35_281
*1580 FILLER_35_293
*1581 FILLER_35_3
*1582 FILLER_35_305
*1583 FILLER_35_317
*1584 FILLER_35_329
*1585 FILLER_35_335
*1586 FILLER_35_337
*1587 FILLER_35_349
*1588 FILLER_35_361
*1589 FILLER_35_373
*1590 FILLER_35_385
*1591 FILLER_35_39
*1592 FILLER_35_391
*1593 FILLER_35_393
*1594 FILLER_35_405
*1595 FILLER_35_51
*1596 FILLER_35_55
*1597 FILLER_35_57
*1598 FILLER_35_69
*1599 FILLER_35_81
*1600 FILLER_35_93
*1601 FILLER_36_105
*1602 FILLER_36_118
*1603 FILLER_36_130
*1604 FILLER_36_138
*1605 FILLER_36_141
*1606 FILLER_36_15
*1607 FILLER_36_170
*1608 FILLER_36_182
*1609 FILLER_36_194
*1610 FILLER_36_197
*1611 FILLER_36_209
*1612 FILLER_36_221
*1613 FILLER_36_242
*1614 FILLER_36_250
*1615 FILLER_36_260
*1616 FILLER_36_27
*1617 FILLER_36_272
*1618 FILLER_36_284
*1619 FILLER_36_29
*1620 FILLER_36_296
*1621 FILLER_36_3
*1622 FILLER_36_309
*1623 FILLER_36_321
*1624 FILLER_36_333
*1625 FILLER_36_345
*1626 FILLER_36_357
*1627 FILLER_36_363
*1628 FILLER_36_365
*1629 FILLER_36_377
*1630 FILLER_36_389
*1631 FILLER_36_401
*1632 FILLER_36_41
*1633 FILLER_36_53
*1634 FILLER_36_65
*1635 FILLER_36_77
*1636 FILLER_36_83
*1637 FILLER_36_85
*1638 FILLER_36_93
*1639 FILLER_37_109
*1640 FILLER_37_113
*1641 FILLER_37_125
*1642 FILLER_37_137
*1643 FILLER_37_143
*1644 FILLER_37_161
*1645 FILLER_37_167
*1646 FILLER_37_169
*1647 FILLER_37_18
*1648 FILLER_37_181
*1649 FILLER_37_187
*1650 FILLER_37_206
*1651 FILLER_37_218
*1652 FILLER_37_225
*1653 FILLER_37_237
*1654 FILLER_37_241
*1655 FILLER_37_266
*1656 FILLER_37_278
*1657 FILLER_37_281
*1658 FILLER_37_293
*1659 FILLER_37_30
*1660 FILLER_37_305
*1661 FILLER_37_317
*1662 FILLER_37_329
*1663 FILLER_37_335
*1664 FILLER_37_337
*1665 FILLER_37_349
*1666 FILLER_37_361
*1667 FILLER_37_373
*1668 FILLER_37_385
*1669 FILLER_37_391
*1670 FILLER_37_393
*1671 FILLER_37_405
*1672 FILLER_37_42
*1673 FILLER_37_54
*1674 FILLER_37_57
*1675 FILLER_37_6
*1676 FILLER_37_69
*1677 FILLER_37_77
*1678 FILLER_37_85
*1679 FILLER_37_97
*1680 FILLER_38_102
*1681 FILLER_38_114
*1682 FILLER_38_126
*1683 FILLER_38_138
*1684 FILLER_38_141
*1685 FILLER_38_15
*1686 FILLER_38_153
*1687 FILLER_38_165
*1688 FILLER_38_177
*1689 FILLER_38_189
*1690 FILLER_38_195
*1691 FILLER_38_206
*1692 FILLER_38_218
*1693 FILLER_38_230
*1694 FILLER_38_242
*1695 FILLER_38_246
*1696 FILLER_38_253
*1697 FILLER_38_265
*1698 FILLER_38_27
*1699 FILLER_38_271
*1700 FILLER_38_278
*1701 FILLER_38_29
*1702 FILLER_38_290
*1703 FILLER_38_3
*1704 FILLER_38_302
*1705 FILLER_38_309
*1706 FILLER_38_321
*1707 FILLER_38_333
*1708 FILLER_38_345
*1709 FILLER_38_357
*1710 FILLER_38_363
*1711 FILLER_38_365
*1712 FILLER_38_377
*1713 FILLER_38_389
*1714 FILLER_38_401