*SPEF "ieee 1481-1999"
*DESIGN "SARSA_RUIDO_e9_1"
*DATE "18:08:19 Tuesday September 16, 2025"
*VENDOR "The OpenROAD Project"
*PROGRAM "OpenROAD"
*VERSION "edf00dff99f6c40d67a30c0e22a8191c5d2ed9d6"
*DESIGN_FLOW "NAME_SCOPE LOCAL" "PIN_CAP NONE"
*DIVIDER /
*DELIMITER :
*BUS_DELIMITER []
*T_UNIT 1 NS
*C_UNIT 1 PF
*R_UNIT 1 OHM
*L_UNIT 1 HENRY

*NAME_MAP
*1 A[0]
*2 A[1]
*3 B[0]
*4 B[1]
*5 P[0]
*6 P[1]
*7 P[2]
*8 P[3]
*11 net1
*12 net2
*13 net3
*14 net4
*15 net5
*16 net6
*17 net7
*18 net8
*19 FILLER_0_15
*20 FILLER_0_27
*21 FILLER_0_29
*22 FILLER_0_3
*23 FILLER_0_41
*24 FILLER_0_53
*25 FILLER_0_57
*26 FILLER_0_69
*27 FILLER_1_15
*28 FILLER_1_27
*29 FILLER_1_3
*30 FILLER_1_39
*31 FILLER_1_51
*32 FILLER_1_55
*33 FILLER_1_57
*34 FILLER_1_69
*35 FILLER_2_19
*36 FILLER_2_27
*37 FILLER_2_29
*38 FILLER_2_41
*39 FILLER_2_53
*40 FILLER_2_65
*41 FILLER_2_7
*42 FILLER_2_77
*43 FILLER_3_15
*44 FILLER_3_27
*45 FILLER_3_3
*46 FILLER_3_39
*47 FILLER_3_51
*48 FILLER_3_55
*49 FILLER_3_57
*50 FILLER_3_69
*51 FILLER_4_19
*52 FILLER_4_27
*53 FILLER_4_29
*54 FILLER_4_41
*55 FILLER_4_53
*56 FILLER_4_65
*57 FILLER_4_7
*58 FILLER_4_77
*59 FILLER_5_12
*60 FILLER_5_18
*61 FILLER_5_28
*62 FILLER_5_40
*63 FILLER_5_52
*64 FILLER_5_57
*65 FILLER_5_6
*66 FILLER_5_69
*67 FILLER_6_10
*68 FILLER_6_18
*69 FILLER_6_26
*70 FILLER_6_29
*71 FILLER_6_41
*72 FILLER_6_53
*73 FILLER_6_6
*74 FILLER_6_65
*75 FILLER_7_14
*76 FILLER_7_24
*77 FILLER_7_36
*78 FILLER_7_48
*79 FILLER_7_57
*80 FILLER_7_6
*81 FILLER_7_69
*82 FILLER_8_15
*83 FILLER_8_27
*84 FILLER_8_29
*85 FILLER_8_3
*86 FILLER_8_41
*87 FILLER_8_53
*88 FILLER_8_65
*89 FILLER_8_77
*90 FILLER_9_18
*91 FILLER_9_26
*92 FILLER_9_29
*93 FILLER_9_41
*94 FILLER_9_53
*95 FILLER_9_57
*96 FILLER_9_6
*97 FILLER_9_69
*98 PHY_EDGE_ROW_0_Left_10
*99 PHY_EDGE_ROW_0_Right_0
*100 PHY_EDGE_ROW_1_Left_11
*101 PHY_EDGE_ROW_1_Right_1
*102 PHY_EDGE_ROW_2_Left_12
*103 PHY_EDGE_ROW_2_Right_2
*104 PHY_EDGE_ROW_3_Left_13
*105 PHY_EDGE_ROW_3_Right_3
*106 PHY_EDGE_ROW_4_Left_14
*107 PHY_EDGE_ROW_4_Right_4
*108 PHY_EDGE_ROW_5_Left_15
*109 PHY_EDGE_ROW_5_Right_5
*110 PHY_EDGE_ROW_6_Left_16
*111 PHY_EDGE_ROW_6_Right_6
*112 PHY_EDGE_ROW_7_Left_17
*113 PHY_EDGE_ROW_7_Right_7
*114 PHY_EDGE_ROW_8_Left_18
*115 PHY_EDGE_ROW_8_Right_8
*116 PHY_EDGE_ROW_9_Left_19
*117 PHY_EDGE_ROW_9_Right_9
*118 TAP_TAPCELL_ROW_0_20
*119 TAP_TAPCELL_ROW_0_21
*120 TAP_TAPCELL_ROW_1_22
*121 TAP_TAPCELL_ROW_2_23
*122 TAP_TAPCELL_ROW_3_24
*123 TAP_TAPCELL_ROW_4_25
*124 TAP_TAPCELL_ROW_5_26
*125 TAP_TAPCELL_ROW_6_27
*126 TAP_TAPCELL_ROW_7_28
*127 TAP_TAPCELL_ROW_8_29
*128 TAP_TAPCELL_ROW_9_30
*129 TAP_TAPCELL_ROW_9_31
*130 _0_
*131 _1_
*132 _2_
*133 _3_
*134 input1
*135 input2
*136 input3
*137 input4
*138 output5
*139 output6
*140 output7
*141 output8

*PORTS
A[0] I
A[1] I
B[0] I
B[1] I
P[0] O
P[1] O
P[2] O
P[3] O

*D_NET *1 0.000653054
*CONN
*P A[0] I
*I *134:A I *D sky130_fd_sc_hd__clkbuf_1
*CAP
1 A[0] 0.000283351
2 *134:A 0.000283351
3 *134:A *135:A 0
4 *134:A *137:A 2.85068e-05
5 *134:A *11:12 5.78448e-05
*RES
1 A[0] *134:A 6.63177 
*END

*D_NET *2 0.000503687
*CONN
*P A[1] I
*I *135:A I *D sky130_fd_sc_hd__clkbuf_1
*CAP
1 A[1] 0.000223579
2 *135:A 0.000223579
3 *135:A *136:A 2.85068e-05
4 *135:A *137:A 2.24901e-05
5 *135:A *11:12 5.53249e-06
6 *134:A *135:A 0
*RES
1 A[1] *135:A 5.35677 
*END

*D_NET *3 0.000623243
*CONN
*P B[0] I
*I *136:A I *D sky130_fd_sc_hd__clkbuf_1
*CAP
1 B[0] 0.00028255
2 *136:A 0.00028255
3 *136:A P[3] 2.96366e-05
4 *135:A *136:A 2.85068e-05
*RES
1 B[0] *136:A 7.5993 
*END

*D_NET *4 0.000535548
*CONN
*P B[1] I
*I *137:A I *D sky130_fd_sc_hd__clkbuf_1
*CAP
1 B[1] 0.000242276
2 *137:A 0.000242276
3 *134:A *137:A 2.85068e-05
4 *135:A *137:A 2.24901e-05
*RES
1 B[1] *137:A 6.8343 
*END

*D_NET *5 0.000649916
*CONN
*P P[0] O
*I *138:X O *D sky130_fd_sc_hd__buf_2
*CAP
1 P[0] 0.000313713
2 *138:X 0.000313713
3 P[0] P[3] 2.24901e-05
*RES
1 *138:X P[0] 7.1793 
*END

*D_NET *6 0.000462966
*CONN
*P P[1] O
*I *139:X O *D sky130_fd_sc_hd__buf_2
*CAP
1 P[1] 0.000185209
2 *139:X 0.000185209
3 P[1] P[2] 9.25475e-05
*RES
1 *139:X P[1] 4.90503 
*END

*D_NET *7 0.000527701
*CONN
*P P[2] O
*I *140:X O *D sky130_fd_sc_hd__buf_2
*CAP
1 P[2] 0.000217577
2 *140:X 0.000217577
3 P[1] P[2] 9.25475e-05
*RES
1 *140:X P[2] 5.41503 
*END

*D_NET *8 0.000711264
*CONN
*P P[3] O
*I *141:X O *D sky130_fd_sc_hd__buf_2
*CAP
1 P[3] 0.000329569
2 *141:X 0.000329569
3 P[0] P[3] 2.24901e-05
4 *136:A P[3] 2.96366e-05
*RES
1 *141:X P[3] 7.6893 
*END

*D_NET *11 0.00237504
*CONN
*I *131:D I *D sky130_fd_sc_hd__and4_1
*I *132:B I *D sky130_fd_sc_hd__and3b_1
*I *130:B I *D sky130_fd_sc_hd__and2_1
*I *134:X O *D sky130_fd_sc_hd__clkbuf_1
*CAP
1 *131:D 0
2 *132:B 0.000231093
3 *130:B 6.03705e-05
4 *134:X 0.000476988
5 *11:14 0.000291463
6 *11:12 0.000476988
7 *130:B *131:B 6.74079e-05
8 *130:B *132:A_N 4.21314e-05
9 *130:B *141:A 0.000120186
10 *132:B *131:A 0
11 *132:B *132:A_N 0.000188225
12 *132:B *14:21 5.9054e-05
13 *11:12 *131:A 0
14 *11:12 *133:B 4.82863e-05
15 *11:12 *12:10 0.000249471
16 *134:A *11:12 5.78448e-05
17 *135:A *11:12 5.53249e-06
*RES
1 *134:X *11:12 14.87 
2 *11:12 *11:14 2 
3 *11:14 *130:B 5.49 
4 *11:14 *132:B 7.41 
5 *11:12 *131:D 1.6 
*END

*D_NET *12 0.00166001
*CONN
*I *133:B I *D sky130_fd_sc_hd__and3b_1
*I *131:C I *D sky130_fd_sc_hd__and4_1
*I *135:X O *D sky130_fd_sc_hd__clkbuf_1
*CAP
1 *133:B 0.000420554
2 *131:C 0
3 *135:X 0.000236426
4 *12:10 0.00065698
5 *133:B *133:C 0
6 *133:B *141:A 0
7 *133:B *18:8 4.82919e-05
8 *11:12 *133:B 4.82863e-05
9 *11:12 *12:10 0.000249471
*RES
1 *135:X *12:10 5.275 
2 *12:10 *131:C 1.6 
3 *12:10 *133:B 11.9 
*END

*D_NET *13 0.000692317
*CONN
*I *130:A I *D sky130_fd_sc_hd__and2_1
*I *131:B I *D sky130_fd_sc_hd__and4_1
*I *136:X O *D sky130_fd_sc_hd__clkbuf_1
*CAP
1 *130:A 0
2 *131:B 8.01956e-05
3 *136:X 0.000227176
4 *13:8 0.000307372
5 *131:B *141:A 1.01661e-05
6 *130:B *131:B 6.74079e-05
*RES
1 *136:X *13:8 4.825 
2 *13:8 *131:B 7.235 
3 *13:8 *130:A 1.6 
*END

*D_NET *14 0.00202185
*CONN
*I *132:C I *D sky130_fd_sc_hd__and3b_1
*I *133:C I *D sky130_fd_sc_hd__and3b_1
*I *131:A I *D sky130_fd_sc_hd__and4_1
*I *137:X O *D sky130_fd_sc_hd__clkbuf_1
*CAP
1 *132:C 0
2 *133:C 0.000392941
3 *131:A 7.87379e-05
4 *137:X 0.000201904
5 *14:21 0.000690795
6 *14:6 0.000578495
7 *133:C *132:A_N 0
8 *133:C *133:A_N 1.54061e-06
9 *133:C *141:A 0
10 *14:21 *132:A_N 1.83847e-05
11 *132:B *131:A 0
12 *132:B *14:21 5.9054e-05
13 *133:B *133:C 0
14 *11:12 *131:A 0
*RES
1 *137:X *14:6 3.775 
2 *14:6 *131:A 6.725 
3 *14:6 *14:21 4.68 
4 *14:21 *133:C 11.015 
5 *14:21 *132:C 1.6 
*END

*D_NET *15 0.00161025
*CONN
*I *133:A_N I *D sky130_fd_sc_hd__and3b_1
*I *138:A I *D sky130_fd_sc_hd__buf_2
*I *130:X O *D sky130_fd_sc_hd__and2_1
*CAP
1 *133:A_N 0.000158498
2 *138:A 0.000575052
3 *130:X 0
4 *15:4 0.00073355
5 *138:A *141:A 0.000141606
6 *133:C *133:A_N 1.54061e-06
*RES
1 *130:X *15:4 1.6 
2 *15:4 *138:A 15.215 
3 *15:4 *133:A_N 3.445 
*END

*D_NET *16 0.00364063
*CONN
*I *139:A I *D sky130_fd_sc_hd__buf_2
*I *132:X O *D sky130_fd_sc_hd__and3b_1
*CAP
1 *139:A 0.00182031
2 *132:X 0.00182031
*RES
1 *132:X *139:A 27.57 
*END

*D_NET *17 0.00302161
*CONN
*I *140:A I *D sky130_fd_sc_hd__buf_2
*I *133:X O *D sky130_fd_sc_hd__and3b_1
*CAP
1 *140:A 0.00151081
2 *133:X 0.00151081
*RES
1 *133:X *140:A 21.275 
*END

*D_NET *18 0.00169155
*CONN
*I *132:A_N I *D sky130_fd_sc_hd__and3b_1
*I *141:A I *D sky130_fd_sc_hd__buf_2
*I *131:X O *D sky130_fd_sc_hd__and4_1
*CAP
1 *132:A_N 0.000126492
2 *141:A 0.00040092
3 *131:X 3.38648e-05
4 *18:8 0.000561277
5 *130:B *132:A_N 4.21314e-05
6 *130:B *141:A 0.000120186
7 *131:B *141:A 1.01661e-05
8 *132:B *132:A_N 0.000188225
9 *133:B *141:A 0
10 *133:B *18:8 4.82919e-05
11 *133:C *132:A_N 0
12 *133:C *141:A 0
13 *138:A *141:A 0.000141606
14 *14:21 *132:A_N 1.83847e-05
*RES
1 *131:X *18:8 4.05 
2 *18:8 *141:A 10.83 
3 *18:8 *132:A_N 6.45 
*END
