*SPEF "ieee 1481-1999"
*DESIGN "mult8_comb"
*DATE "14:58:08 Friday September 19, 2025"
*VENDOR "The OpenROAD Project"
*PROGRAM "OpenROAD"
*VERSION "edf00dff99f6c40d67a30c0e22a8191c5d2ed9d6"
*DESIGN_FLOW "NAME_SCOPE LOCAL" "PIN_CAP NONE"
*DIVIDER /
*DELIMITER :
*BUS_DELIMITER []
*T_UNIT 1 NS
*C_UNIT 1 PF
*R_UNIT 1 OHM
*L_UNIT 1 HENRY

*NAME_MAP
*3 a[0]
*4 a[1]
*5 a[2]
*6 a[3]
*7 a[4]
*8 a[5]
*9 a[6]
*10 a[7]
*11 b[0]
*12 b[1]
*13 b[2]
*14 b[3]
*15 b[4]
*16 b[5]
*17 b[6]
*18 b[7]
*19 y[0]
*20 y[10]
*21 y[11]
*22 y[12]
*23 y[13]
*24 y[14]
*25 y[15]
*26 y[1]
*27 y[2]
*28 y[3]
*29 y[4]
*30 y[5]
*31 y[6]
*32 y[7]
*33 y[8]
*34 y[9]
*35 _000_
*36 _001_
*37 _002_
*38 _003_
*39 _004_
*40 _005_
*41 _006_
*42 _007_
*43 _008_
*44 _009_
*45 _010_
*46 _011_
*47 _012_
*48 _013_
*49 _014_
*50 _015_
*51 _016_
*52 _017_
*53 _018_
*54 _019_
*55 _020_
*56 _021_
*57 _022_
*58 _023_
*59 _024_
*60 _025_
*61 _026_
*62 _027_
*63 _028_
*64 _029_
*65 _030_
*66 _031_
*67 _032_
*68 _033_
*69 _034_
*70 _035_
*71 _036_
*72 _037_
*73 _038_
*74 _039_
*75 _040_
*76 _041_
*77 _042_
*78 _043_
*79 _044_
*80 _045_
*81 _046_
*82 _047_
*83 _048_
*84 _049_
*85 _050_
*86 _051_
*87 _052_
*88 _053_
*89 _054_
*90 _055_
*91 _056_
*92 _057_
*93 _058_
*94 _059_
*95 _060_
*96 _061_
*97 _062_
*98 _063_
*99 _064_
*100 _065_
*101 _066_
*102 _067_
*103 _068_
*104 _069_
*105 _070_
*106 _071_
*107 _072_
*108 _073_
*109 _074_
*110 _075_
*111 _076_
*112 _077_
*113 _078_
*114 _079_
*115 _080_
*116 _081_
*117 _082_
*118 _083_
*119 _084_
*120 _085_
*121 _086_
*122 _087_
*123 _088_
*124 _089_
*125 _090_
*126 _091_
*127 _092_
*128 _093_
*129 _094_
*130 _095_
*131 _096_
*132 _097_
*133 _098_
*134 _099_
*135 _100_
*136 _101_
*137 _102_
*138 _103_
*139 _104_
*140 _105_
*141 _106_
*142 _107_
*143 _108_
*144 _109_
*145 _110_
*146 _111_
*147 _112_
*148 _113_
*149 _114_
*150 _115_
*151 _116_
*152 _117_
*153 _118_
*154 _119_
*155 _120_
*156 _121_
*157 _122_
*158 _123_
*159 _124_
*160 _125_
*161 _126_
*162 _127_
*163 _128_
*164 _129_
*165 _130_
*166 _131_
*167 _132_
*168 _133_
*169 _134_
*170 _135_
*171 _136_
*172 _137_
*173 _138_
*174 _139_
*175 _140_
*176 _141_
*177 _142_
*178 _143_
*179 _144_
*180 _145_
*181 _146_
*182 _147_
*183 _148_
*184 _149_
*185 _150_
*186 _151_
*187 _152_
*188 _153_
*189 _154_
*190 _155_
*191 _156_
*192 _157_
*193 _158_
*194 _159_
*195 _160_
*196 _161_
*197 _162_
*198 _163_
*199 _164_
*200 _165_
*201 _166_
*202 _167_
*203 _168_
*204 _169_
*205 _170_
*206 _171_
*207 _172_
*208 _173_
*209 _174_
*210 _175_
*211 _176_
*212 _177_
*213 _178_
*214 _179_
*215 _180_
*216 _181_
*217 _182_
*218 _183_
*219 _184_
*220 _185_
*221 _186_
*222 _187_
*223 _188_
*224 _189_
*225 _190_
*226 _191_
*227 _192_
*228 _193_
*229 _194_
*230 _195_
*231 _196_
*232 _197_
*233 _198_
*234 _199_
*235 _200_
*236 _201_
*237 _202_
*238 _203_
*239 _204_
*240 _205_
*241 _206_
*242 _207_
*243 _208_
*244 _209_
*245 _210_
*246 _211_
*247 _212_
*248 _213_
*249 _214_
*250 _215_
*251 _216_
*252 _217_
*253 _218_
*254 _219_
*255 _220_
*256 _221_
*257 _222_
*258 _223_
*259 _224_
*260 _225_
*261 _226_
*262 _227_
*263 _228_
*264 _229_
*265 _230_
*266 _231_
*267 _232_
*268 _233_
*269 _234_
*270 _235_
*271 _236_
*272 _237_
*273 _238_
*274 _239_
*275 _240_
*276 _241_
*277 _242_
*278 _243_
*279 _244_
*280 _245_
*281 _246_
*282 _247_
*283 _248_
*284 _249_
*285 _250_
*286 _251_
*287 _252_
*288 _253_
*289 _254_
*290 _255_
*291 _256_
*292 _257_
*293 _258_
*294 _259_
*295 _260_
*296 _261_
*297 _262_
*298 _263_
*299 _264_
*300 _265_
*301 _266_
*302 _267_
*303 _268_
*304 _269_
*305 _270_
*306 _271_
*307 _272_
*308 _273_
*309 _274_
*310 _275_
*311 _276_
*312 _277_
*313 _278_
*314 _279_
*315 _280_
*316 net1
*317 net10
*318 net11
*319 net12
*320 net13
*321 net14
*322 net15
*323 net16
*324 net17
*325 net18
*326 net19
*327 net2
*328 net20
*329 net21
*330 net22
*331 net23
*332 net24
*333 net25
*334 net26
*335 net27
*336 net28
*337 net29
*338 net3
*339 net30
*340 net31
*341 net32
*342 net33
*343 net34
*344 net35
*345 net36
*346 net37
*347 net38
*348 net39
*349 net4
*350 net40
*351 net41
*352 net42
*353 net43
*354 net44
*355 net45
*356 net46
*357 net47
*358 net48
*359 net49
*360 net5
*361 net50
*362 net51
*363 net52
*364 net53
*365 net54
*366 net55
*367 net56
*368 net57
*369 net58
*370 net59
*371 net6
*372 net60
*373 net61
*374 net62
*375 net7
*376 net8
*377 net9
*378 FILLER_0_109
*379 FILLER_0_113
*380 FILLER_0_125
*381 FILLER_0_137
*382 FILLER_0_141
*383 FILLER_0_149
*384 FILLER_0_15
*385 FILLER_0_153
*386 FILLER_0_161
*387 FILLER_0_167
*388 FILLER_0_169
*389 FILLER_0_181
*390 FILLER_0_189
*391 FILLER_0_195
*392 FILLER_0_211
*393 FILLER_0_217
*394 FILLER_0_223
*395 FILLER_0_225
*396 FILLER_0_237
*397 FILLER_0_249
*398 FILLER_0_253
*399 FILLER_0_265
*400 FILLER_0_27
*401 FILLER_0_277
*402 FILLER_0_281
*403 FILLER_0_29
*404 FILLER_0_293
*405 FILLER_0_3
*406 FILLER_0_305
*407 FILLER_0_309
*408 FILLER_0_321
*409 FILLER_0_333
*410 FILLER_0_337
*411 FILLER_0_349
*412 FILLER_0_361
*413 FILLER_0_365
*414 FILLER_0_377
*415 FILLER_0_389
*416 FILLER_0_393
*417 FILLER_0_405
*418 FILLER_0_41
*419 FILLER_0_53
*420 FILLER_0_57
*421 FILLER_0_69
*422 FILLER_0_81
*423 FILLER_0_85
*424 FILLER_0_97
*425 FILLER_10_109
*426 FILLER_10_121
*427 FILLER_10_133
*428 FILLER_10_139
*429 FILLER_10_141
*430 FILLER_10_15
*431 FILLER_10_153
*432 FILLER_10_165
*433 FILLER_10_173
*434 FILLER_10_187
*435 FILLER_10_195
*436 FILLER_10_197
*437 FILLER_10_209
*438 FILLER_10_221
*439 FILLER_10_229
*440 FILLER_10_240
*441 FILLER_10_251
*442 FILLER_10_253
*443 FILLER_10_267
*444 FILLER_10_27
*445 FILLER_10_279
*446 FILLER_10_29
*447 FILLER_10_291
*448 FILLER_10_3
*449 FILLER_10_303
*450 FILLER_10_307
*451 FILLER_10_309
*452 FILLER_10_321
*453 FILLER_10_333
*454 FILLER_10_345
*455 FILLER_10_357
*456 FILLER_10_363
*457 FILLER_10_365
*458 FILLER_10_377
*459 FILLER_10_389
*460 FILLER_10_401
*461 FILLER_10_41
*462 FILLER_10_53
*463 FILLER_10_65
*464 FILLER_10_77
*465 FILLER_10_83
*466 FILLER_10_85
*467 FILLER_10_97
*468 FILLER_11_105
*469 FILLER_11_111
*470 FILLER_11_113
*471 FILLER_11_125
*472 FILLER_11_137
*473 FILLER_11_149
*474 FILLER_11_15
*475 FILLER_11_161
*476 FILLER_11_167
*477 FILLER_11_169
*478 FILLER_11_180
*479 FILLER_11_192
*480 FILLER_11_204
*481 FILLER_11_212
*482 FILLER_11_219
*483 FILLER_11_223
*484 FILLER_11_232
*485 FILLER_11_251
*486 FILLER_11_263
*487 FILLER_11_27
*488 FILLER_11_274
*489 FILLER_11_281
*490 FILLER_11_293
*491 FILLER_11_3
*492 FILLER_11_305
*493 FILLER_11_317
*494 FILLER_11_329
*495 FILLER_11_335
*496 FILLER_11_337
*497 FILLER_11_349
*498 FILLER_11_361
*499 FILLER_11_373
*500 FILLER_11_385
*501 FILLER_11_39
*502 FILLER_11_391
*503 FILLER_11_393
*504 FILLER_11_405
*505 FILLER_11_51
*506 FILLER_11_55
*507 FILLER_11_57
*508 FILLER_11_69
*509 FILLER_11_81
*510 FILLER_11_93
*511 FILLER_12_109
*512 FILLER_12_121
*513 FILLER_12_133
*514 FILLER_12_139
*515 FILLER_12_141
*516 FILLER_12_149
*517 FILLER_12_15
*518 FILLER_12_164
*519 FILLER_12_170
*520 FILLER_12_179
*521 FILLER_12_191
*522 FILLER_12_195
*523 FILLER_12_197
*524 FILLER_12_209
*525 FILLER_12_221
*526 FILLER_12_233
*527 FILLER_12_245
*528 FILLER_12_251
*529 FILLER_12_253
*530 FILLER_12_265
*531 FILLER_12_27
*532 FILLER_12_279
*533 FILLER_12_29
*534 FILLER_12_291
*535 FILLER_12_3
*536 FILLER_12_303
*537 FILLER_12_307
*538 FILLER_12_309
*539 FILLER_12_321
*540 FILLER_12_333
*541 FILLER_12_345
*542 FILLER_12_357
*543 FILLER_12_363
*544 FILLER_12_365
*545 FILLER_12_377
*546 FILLER_12_389
*547 FILLER_12_401
*548 FILLER_12_41
*549 FILLER_12_53
*550 FILLER_12_65
*551 FILLER_12_77
*552 FILLER_12_83
*553 FILLER_12_85
*554 FILLER_12_97
*555 FILLER_13_105
*556 FILLER_13_111
*557 FILLER_13_113
*558 FILLER_13_125
*559 FILLER_13_137
*560 FILLER_13_149
*561 FILLER_13_15
*562 FILLER_13_155
*563 FILLER_13_166
*564 FILLER_13_169
*565 FILLER_13_181
*566 FILLER_13_193
*567 FILLER_13_205
*568 FILLER_13_217
*569 FILLER_13_223
*570 FILLER_13_225
*571 FILLER_13_237
*572 FILLER_13_249
*573 FILLER_13_261
*574 FILLER_13_27
*575 FILLER_13_273
*576 FILLER_13_279
*577 FILLER_13_286
*578 FILLER_13_298
*579 FILLER_13_3
*580 FILLER_13_310
*581 FILLER_13_322
*582 FILLER_13_334
*583 FILLER_13_337
*584 FILLER_13_349
*585 FILLER_13_361
*586 FILLER_13_373
*587 FILLER_13_385
*588 FILLER_13_39
*589 FILLER_13_391
*590 FILLER_13_393
*591 FILLER_13_405
*592 FILLER_13_51
*593 FILLER_13_55
*594 FILLER_13_57
*595 FILLER_13_69
*596 FILLER_13_81
*597 FILLER_13_93
*598 FILLER_14_105
*599 FILLER_14_133
*600 FILLER_14_139
*601 FILLER_14_141
*602 FILLER_14_145
*603 FILLER_14_15
*604 FILLER_14_166
*605 FILLER_14_178
*606 FILLER_14_190
*607 FILLER_14_197
*608 FILLER_14_209
*609 FILLER_14_224
*610 FILLER_14_236
*611 FILLER_14_248
*612 FILLER_14_253
*613 FILLER_14_265
*614 FILLER_14_27
*615 FILLER_14_277
*616 FILLER_14_289
*617 FILLER_14_29
*618 FILLER_14_3
*619 FILLER_14_301
*620 FILLER_14_307
*621 FILLER_14_309
*622 FILLER_14_321
*623 FILLER_14_333
*624 FILLER_14_345
*625 FILLER_14_357
*626 FILLER_14_363
*627 FILLER_14_365
*628 FILLER_14_377
*629 FILLER_14_389
*630 FILLER_14_401
*631 FILLER_14_41
*632 FILLER_14_53
*633 FILLER_14_65
*634 FILLER_14_77
*635 FILLER_14_83
*636 FILLER_14_85
*637 FILLER_14_97
*638 FILLER_15_106
*639 FILLER_15_113
*640 FILLER_15_121
*641 FILLER_15_140
*642 FILLER_15_15
*643 FILLER_15_159
*644 FILLER_15_167
*645 FILLER_15_176
*646 FILLER_15_188
*647 FILLER_15_200
*648 FILLER_15_218
*649 FILLER_15_225
*650 FILLER_15_237
*651 FILLER_15_249
*652 FILLER_15_261
*653 FILLER_15_27
*654 FILLER_15_273
*655 FILLER_15_279
*656 FILLER_15_281
*657 FILLER_15_293
*658 FILLER_15_3
*659 FILLER_15_305
*660 FILLER_15_317
*661 FILLER_15_329
*662 FILLER_15_335
*663 FILLER_15_337
*664 FILLER_15_349
*665 FILLER_15_361
*666 FILLER_15_373
*667 FILLER_15_385
*668 FILLER_15_39
*669 FILLER_15_391
*670 FILLER_15_393
*671 FILLER_15_401
*672 FILLER_15_51
*673 FILLER_15_55
*674 FILLER_15_57
*675 FILLER_15_69
*676 FILLER_15_77
*677 FILLER_15_86
*678 FILLER_16_104
*679 FILLER_16_116
*680 FILLER_16_128
*681 FILLER_16_141
*682 FILLER_16_15
*683 FILLER_16_153
*684 FILLER_16_165
*685 FILLER_16_177
*686 FILLER_16_185
*687 FILLER_16_194
*688 FILLER_16_201
*689 FILLER_16_213
*690 FILLER_16_222
*691 FILLER_16_234
*692 FILLER_16_246
*693 FILLER_16_253
*694 FILLER_16_265
*695 FILLER_16_27
*696 FILLER_16_277
*697 FILLER_16_29
*698 FILLER_16_291
*699 FILLER_16_3
*700 FILLER_16_303
*701 FILLER_16_307
*702 FILLER_16_309
*703 FILLER_16_321
*704 FILLER_16_333
*705 FILLER_16_345
*706 FILLER_16_357
*707 FILLER_16_363
*708 FILLER_16_365
*709 FILLER_16_377
*710 FILLER_16_389
*711 FILLER_16_401
*712 FILLER_16_41
*713 FILLER_16_53
*714 FILLER_16_65
*715 FILLER_16_82
*716 FILLER_16_85
*717 FILLER_16_97
*718 FILLER_17_117
*719 FILLER_17_129
*720 FILLER_17_141
*721 FILLER_17_15
*722 FILLER_17_163
*723 FILLER_17_167
*724 FILLER_17_169
*725 FILLER_17_180
*726 FILLER_17_192
*727 FILLER_17_204
*728 FILLER_17_216
*729 FILLER_17_238
*730 FILLER_17_250
*731 FILLER_17_254
*732 FILLER_17_268
*733 FILLER_17_27
*734 FILLER_17_281
*735 FILLER_17_293
*736 FILLER_17_3
*737 FILLER_17_305
*738 FILLER_17_317
*739 FILLER_17_329
*740 FILLER_17_335
*741 FILLER_17_337
*742 FILLER_17_349
*743 FILLER_17_361
*744 FILLER_17_373
*745 FILLER_17_385
*746 FILLER_17_39
*747 FILLER_17_391
*748 FILLER_17_393
*749 FILLER_17_405
*750 FILLER_17_51
*751 FILLER_17_55
*752 FILLER_17_57
*753 FILLER_17_69
*754 FILLER_17_74
*755 FILLER_17_85
*756 FILLER_17_97
*757 FILLER_18_109
*758 FILLER_18_121
*759 FILLER_18_133
*760 FILLER_18_139
*761 FILLER_18_141
*762 FILLER_18_15
*763 FILLER_18_153
*764 FILLER_18_165
*765 FILLER_18_177
*766 FILLER_18_189
*767 FILLER_18_195
*768 FILLER_18_197
*769 FILLER_18_203
*770 FILLER_18_222
*771 FILLER_18_234
*772 FILLER_18_246
*773 FILLER_18_268
*774 FILLER_18_27
*775 FILLER_18_280
*776 FILLER_18_29
*777 FILLER_18_292
*778 FILLER_18_3
*779 FILLER_18_304
*780 FILLER_18_309
*781 FILLER_18_321
*782 FILLER_18_333
*783 FILLER_18_345
*784 FILLER_18_357
*785 FILLER_18_363
*786 FILLER_18_365
*787 FILLER_18_377
*788 FILLER_18_389
*789 FILLER_18_401
*790 FILLER_18_41
*791 FILLER_18_53
*792 FILLER_18_65
*793 FILLER_18_70
*794 FILLER_18_82
*795 FILLER_18_85
*796 FILLER_18_97
*797 FILLER_19_105
*798 FILLER_19_111
*799 FILLER_19_113
*800 FILLER_19_131
*801 FILLER_19_143
*802 FILLER_19_15
*803 FILLER_19_155
*804 FILLER_19_167
*805 FILLER_19_169
*806 FILLER_19_181
*807 FILLER_19_193
*808 FILLER_19_205
*809 FILLER_19_217
*810 FILLER_19_223
*811 FILLER_19_225
*812 FILLER_19_237
*813 FILLER_19_249
*814 FILLER_19_261
*815 FILLER_19_27
*816 FILLER_19_274
*817 FILLER_19_284
*818 FILLER_19_296
*819 FILLER_19_3
*820 FILLER_19_308
*821 FILLER_19_320
*822 FILLER_19_332
*823 FILLER_19_337
*824 FILLER_19_349
*825 FILLER_19_361
*826 FILLER_19_373
*827 FILLER_19_385
*828 FILLER_19_39
*829 FILLER_19_391
*830 FILLER_19_393
*831 FILLER_19_405
*832 FILLER_19_51
*833 FILLER_19_55
*834 FILLER_19_57
*835 FILLER_19_69
*836 FILLER_19_81
*837 FILLER_19_93
*838 FILLER_1_105
*839 FILLER_1_111
*840 FILLER_1_113
*841 FILLER_1_125
*842 FILLER_1_137
*843 FILLER_1_149
*844 FILLER_1_15
*845 FILLER_1_161
*846 FILLER_1_167
*847 FILLER_1_169
*848 FILLER_1_177
*849 FILLER_1_185
*850 FILLER_1_192
*851 FILLER_1_198
*852 FILLER_1_203
*853 FILLER_1_215
*854 FILLER_1_223
*855 FILLER_1_225
*856 FILLER_1_237
*857 FILLER_1_249
*858 FILLER_1_261
*859 FILLER_1_27
*860 FILLER_1_273
*861 FILLER_1_279
*862 FILLER_1_281
*863 FILLER_1_293
*864 FILLER_1_3
*865 FILLER_1_305
*866 FILLER_1_317
*867 FILLER_1_329
*868 FILLER_1_335
*869 FILLER_1_337
*870 FILLER_1_349
*871 FILLER_1_361
*872 FILLER_1_373
*873 FILLER_1_385
*874 FILLER_1_39
*875 FILLER_1_391
*876 FILLER_1_393
*877 FILLER_1_405
*878 FILLER_1_51
*879 FILLER_1_55
*880 FILLER_1_57
*881 FILLER_1_69
*882 FILLER_1_81
*883 FILLER_1_93
*884 FILLER_20_109
*885 FILLER_20_121
*886 FILLER_20_133
*887 FILLER_20_139
*888 FILLER_20_141
*889 FILLER_20_15
*890 FILLER_20_153
*891 FILLER_20_165
*892 FILLER_20_171
*893 FILLER_20_182
*894 FILLER_20_194
*895 FILLER_20_197
*896 FILLER_20_209
*897 FILLER_20_227
*898 FILLER_20_239
*899 FILLER_20_251
*900 FILLER_20_263
*901 FILLER_20_27
*902 FILLER_20_282
*903 FILLER_20_29
*904 FILLER_20_293
*905 FILLER_20_3
*906 FILLER_20_305
*907 FILLER_20_309
*908 FILLER_20_321
*909 FILLER_20_333
*910 FILLER_20_345
*911 FILLER_20_357
*912 FILLER_20_363
*913 FILLER_20_365
*914 FILLER_20_377
*915 FILLER_20_389
*916 FILLER_20_401
*917 FILLER_20_41
*918 FILLER_20_53
*919 FILLER_20_61
*920 FILLER_20_77
*921 FILLER_20_83
*922 FILLER_20_85
*923 FILLER_20_97
*924 FILLER_21_107
*925 FILLER_21_111
*926 FILLER_21_113
*927 FILLER_21_125
*928 FILLER_21_137
*929 FILLER_21_149
*930 FILLER_21_15
*931 FILLER_21_161
*932 FILLER_21_167
*933 FILLER_21_177
*934 FILLER_21_189
*935 FILLER_21_201
*936 FILLER_21_213
*937 FILLER_21_221
*938 FILLER_21_225
*939 FILLER_21_243
*940 FILLER_21_249
*941 FILLER_21_257
*942 FILLER_21_269
*943 FILLER_21_27
*944 FILLER_21_281
*945 FILLER_21_293
*946 FILLER_21_3
*947 FILLER_21_305
*948 FILLER_21_317
*949 FILLER_21_329
*950 FILLER_21_335
*951 FILLER_21_337
*952 FILLER_21_349
*953 FILLER_21_36
*954 FILLER_21_361
*955 FILLER_21_373
*956 FILLER_21_385
*957 FILLER_21_391
*958 FILLER_21_393
*959 FILLER_21_405
*960 FILLER_21_55
*961 FILLER_21_57
*962 FILLER_21_69
*963 FILLER_21_81
*964 FILLER_21_87
*965 FILLER_22_109
*966 FILLER_22_121
*967 FILLER_22_133
*968 FILLER_22_139
*969 FILLER_22_141
*970 FILLER_22_15
*971 FILLER_22_153
*972 FILLER_22_165
*973 FILLER_22_177
*974 FILLER_22_189
*975 FILLER_22_195
*976 FILLER_22_197
*977 FILLER_22_209
*978 FILLER_22_221
*979 FILLER_22_233
*980 FILLER_22_243
*981 FILLER_22_251
*982 FILLER_22_260
*983 FILLER_22_264
*984 FILLER_22_268
*985 FILLER_22_27
*986 FILLER_22_272
*987 FILLER_22_279
*988 FILLER_22_29
*989 FILLER_22_291
*990 FILLER_22_3
*991 FILLER_22_303
*992 FILLER_22_307
*993 FILLER_22_309
*994 FILLER_22_321
*995 FILLER_22_33
*996 FILLER_22_333
*997 FILLER_22_345
*998 FILLER_22_357
*999 FILLER_22_363
*1000 FILLER_22_365
*1001 FILLER_22_377
*1002 FILLER_22_389
*1003 FILLER_22_401
*1004 FILLER_22_53
*1005 FILLER_22_65
*1006 FILLER_22_77
*1007 FILLER_22_83
*1008 FILLER_22_85
*1009 FILLER_22_97
*1010 FILLER_23_105
*1011 FILLER_23_111
*1012 FILLER_23_113
*1013 FILLER_23_125
*1014 FILLER_23_137
*1015 FILLER_23_145
*1016 FILLER_23_15
*1017 FILLER_23_151
*1018 FILLER_23_163
*1019 FILLER_23_167
*1020 FILLER_23_169
*1021 FILLER_23_180
*1022 FILLER_23_192
*1023 FILLER_23_204
*1024 FILLER_23_216
*1025 FILLER_23_225
*1026 FILLER_23_237
*1027 FILLER_23_249
*1028 FILLER_23_261
*1029 FILLER_23_27
*1030 FILLER_23_273
*1031 FILLER_23_279
*1032 FILLER_23_281
*1033 FILLER_23_293
*1034 FILLER_23_3
*1035 FILLER_23_305
*1036 FILLER_23_317
*1037 FILLER_23_329
*1038 FILLER_23_335
*1039 FILLER_23_337
*1040 FILLER_23_349
*1041 FILLER_23_35
*1042 FILLER_23_361
*1043 FILLER_23_373
*1044 FILLER_23_385
*1045 FILLER_23_391
*1046 FILLER_23_393
*1047 FILLER_23_405
*1048 FILLER_23_53
*1049 FILLER_23_57
*1050 FILLER_23_69
*1051 FILLER_23_81
*1052 FILLER_23_93
*1053 FILLER_24_101
*1054 FILLER_24_106
*1055 FILLER_24_121
*1056 FILLER_24_133
*1057 FILLER_24_139
*1058 FILLER_24_141
*1059 FILLER_24_15
*1060 FILLER_24_158
*1061 FILLER_24_170
*1062 FILLER_24_178
*1063 FILLER_24_190
*1064 FILLER_24_197
*1065 FILLER_24_214
*1066 FILLER_24_226
*1067 FILLER_24_238
*1068 FILLER_24_250
*1069 FILLER_24_253
*1070 FILLER_24_265
*1071 FILLER_24_27
*1072 FILLER_24_277
*1073 FILLER_24_289
*1074 FILLER_24_29
*1075 FILLER_24_3
*1076 FILLER_24_301
*1077 FILLER_24_307
*1078 FILLER_24_309
*1079 FILLER_24_321
*1080 FILLER_24_333
*1081 FILLER_24_345
*1082 FILLER_24_357
*1083 FILLER_24_363
*1084 FILLER_24_365
*1085 FILLER_24_377
*1086 FILLER_24_389
*1087 FILLER_24_401
*1088 FILLER_24_41
*1089 FILLER_24_53
*1090 FILLER_24_65
*1091 FILLER_24_77
*1092 FILLER_24_83
*1093 FILLER_24_85
*1094 FILLER_24_97
*1095 FILLER_25_116
*1096 FILLER_25_128
*1097 FILLER_25_140
*1098 FILLER_25_15
*1099 FILLER_25_152
*1100 FILLER_25_169
*1101 FILLER_25_181
*1102 FILLER_25_196
*1103 FILLER_25_204
*1104 FILLER_25_209
*1105 FILLER_25_221
*1106 FILLER_25_225
*1107 FILLER_25_231
*1108 FILLER_25_243
*1109 FILLER_25_255
*1110 FILLER_25_267
*1111 FILLER_25_27
*1112 FILLER_25_279
*1113 FILLER_25_281
*1114 FILLER_25_293
*1115 FILLER_25_3
*1116 FILLER_25_305
*1117 FILLER_25_317
*1118 FILLER_25_329
*1119 FILLER_25_335
*1120 FILLER_25_337
*1121 FILLER_25_349
*1122 FILLER_25_361
*1123 FILLER_25_373
*1124 FILLER_25_385
*1125 FILLER_25_39
*1126 FILLER_25_391
*1127 FILLER_25_393
*1128 FILLER_25_405
*1129 FILLER_25_45
*1130 FILLER_25_54
*1131 FILLER_25_63
*1132 FILLER_25_75
*1133 FILLER_25_87
*1134 FILLER_26_109
*1135 FILLER_26_11
*1136 FILLER_26_121
*1137 FILLER_26_133
*1138 FILLER_26_139
*1139 FILLER_26_141
*1140 FILLER_26_153
*1141 FILLER_26_165
*1142 FILLER_26_177
*1143 FILLER_26_189
*1144 FILLER_26_195
*1145 FILLER_26_203
*1146 FILLER_26_209
*1147 FILLER_26_21
*1148 FILLER_26_227
*1149 FILLER_26_239
*1150 FILLER_26_243
*1151 FILLER_26_251
*1152 FILLER_26_253
*1153 FILLER_26_265
*1154 FILLER_26_27
*1155 FILLER_26_277
*1156 FILLER_26_289
*1157 FILLER_26_29
*1158 FILLER_26_3
*1159 FILLER_26_301
*1160 FILLER_26_307
*1161 FILLER_26_309
*1162 FILLER_26_321
*1163 FILLER_26_333
*1164 FILLER_26_345
*1165 FILLER_26_357
*1166 FILLER_26_363
*1167 FILLER_26_365
*1168 FILLER_26_377
*1169 FILLER_26_389
*1170 FILLER_26_401
*1171 FILLER_26_41
*1172 FILLER_26_53
*1173 FILLER_26_65
*1174 FILLER_26_77
*1175 FILLER_26_83
*1176 FILLER_26_85
*1177 FILLER_26_97
*1178 FILLER_27_107
*1179 FILLER_27_111
*1180 FILLER_27_119
*1181 FILLER_27_131
*1182 FILLER_27_143
*1183 FILLER_27_155
*1184 FILLER_27_167
*1185 FILLER_27_169
*1186 FILLER_27_181
*1187 FILLER_27_193
*1188 FILLER_27_199
*1189 FILLER_27_207
*1190 FILLER_27_219
*1191 FILLER_27_223
*1192 FILLER_27_225
*1193 FILLER_27_237
*1194 FILLER_27_255
*1195 FILLER_27_267
*1196 FILLER_27_279
*1197 FILLER_27_281
*1198 FILLER_27_293
*1199 FILLER_27_3
*1200 FILLER_27_305
*1201 FILLER_27_317
*1202 FILLER_27_329
*1203 FILLER_27_33
*1204 FILLER_27_335
*1205 FILLER_27_337
*1206 FILLER_27_349
*1207 FILLER_27_361
*1208 FILLER_27_373
*1209 FILLER_27_385
*1210 FILLER_27_391
*1211 FILLER_27_393
*1212 FILLER_27_405
*1213 FILLER_27_45
*1214 FILLER_27_53
*1215 FILLER_27_57
*1216 FILLER_27_65
*1217 FILLER_27_71
*1218 FILLER_27_83
*1219 FILLER_27_9
*1220 FILLER_27_95
*1221 FILLER_28_105
*1222 FILLER_28_11
*1223 FILLER_28_120
*1224 FILLER_28_124
*1225 FILLER_28_132
*1226 FILLER_28_141
*1227 FILLER_28_151
*1228 FILLER_28_163
*1229 FILLER_28_175
*1230 FILLER_28_187
*1231 FILLER_28_195
*1232 FILLER_28_197
*1233 FILLER_28_209
*1234 FILLER_28_221
*1235 FILLER_28_242
*1236 FILLER_28_250
*1237 FILLER_28_253
*1238 FILLER_28_264
*1239 FILLER_28_276
*1240 FILLER_28_288
*1241 FILLER_28_29
*1242 FILLER_28_3
*1243 FILLER_28_300
*1244 FILLER_28_309
*1245 FILLER_28_321
*1246 FILLER_28_333
*1247 FILLER_28_345
*1248 FILLER_28_357
*1249 FILLER_28_363
*1250 FILLER_28_365
*1251 FILLER_28_377
*1252 FILLER_28_389
*1253 FILLER_28_39
*1254 FILLER_28_401
*1255 FILLER_28_51
*1256 FILLER_28_79
*1257 FILLER_28_83
*1258 FILLER_28_85
*1259 FILLER_28_97
*1260 FILLER_29_108
*1261 FILLER_29_11
*1262 FILLER_29_120
*1263 FILLER_29_132
*1264 FILLER_29_160
*1265 FILLER_29_169
*1266 FILLER_29_181
*1267 FILLER_29_193
*1268 FILLER_29_20
*1269 FILLER_29_205
*1270 FILLER_29_217
*1271 FILLER_29_223
*1272 FILLER_29_231
*1273 FILLER_29_24
*1274 FILLER_29_243
*1275 FILLER_29_247
*1276 FILLER_29_254
*1277 FILLER_29_260
*1278 FILLER_29_272
*1279 FILLER_29_281
*1280 FILLER_29_293
*1281 FILLER_29_3
*1282 FILLER_29_305
*1283 FILLER_29_317
*1284 FILLER_29_329
*1285 FILLER_29_335
*1286 FILLER_29_337
*1287 FILLER_29_349
*1288 FILLER_29_361
*1289 FILLER_29_37
*1290 FILLER_29_373
*1291 FILLER_29_385
*1292 FILLER_29_391
*1293 FILLER_29_393
*1294 FILLER_29_405
*1295 FILLER_29_49
*1296 FILLER_29_55
*1297 FILLER_29_57
*1298 FILLER_29_65
*1299 FILLER_29_84
*1300 FILLER_29_96
*1301 FILLER_2_109
*1302 FILLER_2_121
*1303 FILLER_2_133
*1304 FILLER_2_139
*1305 FILLER_2_141
*1306 FILLER_2_15
*1307 FILLER_2_153
*1308 FILLER_2_165
*1309 FILLER_2_195
*1310 FILLER_2_204
*1311 FILLER_2_212
*1312 FILLER_2_217
*1313 FILLER_2_229
*1314 FILLER_2_241
*1315 FILLER_2_249
*1316 FILLER_2_253
*1317 FILLER_2_265
*1318 FILLER_2_27
*1319 FILLER_2_277
*1320 FILLER_2_289
*1321 FILLER_2_29
*1322 FILLER_2_3
*1323 FILLER_2_301
*1324 FILLER_2_307
*1325 FILLER_2_309
*1326 FILLER_2_321
*1327 FILLER_2_333
*1328 FILLER_2_345
*1329 FILLER_2_357
*1330 FILLER_2_363
*1331 FILLER_2_365
*1332 FILLER_2_377
*1333 FILLER_2_389
*1334 FILLER_2_401
*1335 FILLER_2_41
*1336 FILLER_2_53
*1337 FILLER_2_65
*1338 FILLER_2_77
*1339 FILLER_2_83
*1340 FILLER_2_85
*1341 FILLER_2_97
*1342 FILLER_30_106
*1343 FILLER_30_118
*1344 FILLER_30_12
*1345 FILLER_30_130
*1346 FILLER_30_138
*1347 FILLER_30_141
*1348 FILLER_30_161
*1349 FILLER_30_183
*1350 FILLER_30_195
*1351 FILLER_30_197
*1352 FILLER_30_209
*1353 FILLER_30_221
*1354 FILLER_30_233
*1355 FILLER_30_24
*1356 FILLER_30_245
*1357 FILLER_30_251
*1358 FILLER_30_253
*1359 FILLER_30_265
*1360 FILLER_30_274
*1361 FILLER_30_286
*1362 FILLER_30_29
*1363 FILLER_30_298
*1364 FILLER_30_306
*1365 FILLER_30_309
*1366 FILLER_30_321
*1367 FILLER_30_333
*1368 FILLER_30_345
*1369 FILLER_30_357
*1370 FILLER_30_363
*1371 FILLER_30_365
*1372 FILLER_30_377
*1373 FILLER_30_389
*1374 FILLER_30_401
*1375 FILLER_30_41
*1376 FILLER_30_53
*1377 FILLER_30_65
*1378 FILLER_30_73
*1379 FILLER_30_80
*1380 FILLER_30_85
*1381 FILLER_30_97
*1382 FILLER_31_101
*1383 FILLER_31_109
*1384 FILLER_31_113
*1385 FILLER_31_117
*1386 FILLER_31_127
*1387 FILLER_31_139
*1388 FILLER_31_147
*1389 FILLER_31_159
*1390 FILLER_31_167
*1391 FILLER_31_169
*1392 FILLER_31_177
*1393 FILLER_31_18
*1394 FILLER_31_187
*1395 FILLER_31_199
*1396 FILLER_31_211
*1397 FILLER_31_223
*1398 FILLER_31_225
*1399 FILLER_31_237
*1400 FILLER_31_249
*1401 FILLER_31_261
*1402 FILLER_31_269
*1403 FILLER_31_281
*1404 FILLER_31_293
*1405 FILLER_31_30
*1406 FILLER_31_305
*1407 FILLER_31_317
*1408 FILLER_31_329
*1409 FILLER_31_335
*1410 FILLER_31_337
*1411 FILLER_31_349
*1412 FILLER_31_361
*1413 FILLER_31_373
*1414 FILLER_31_385
*1415 FILLER_31_391
*1416 FILLER_31_393
*1417 FILLER_31_405
*1418 FILLER_31_46
*1419 FILLER_31_54
*1420 FILLER_31_57
*1421 FILLER_31_6
*1422 FILLER_31_69
*1423 FILLER_31_81
*1424 FILLER_31_89
*1425 FILLER_32_109
*1426 FILLER_32_131
*1427 FILLER_32_139
*1428 FILLER_32_141
*1429 FILLER_32_153
*1430 FILLER_32_165
*1431 FILLER_32_177
*1432 FILLER_32_18
*1433 FILLER_32_189
*1434 FILLER_32_195
*1435 FILLER_32_197
*1436 FILLER_32_209
*1437 FILLER_32_229
*1438 FILLER_32_241
*1439 FILLER_32_249
*1440 FILLER_32_253
*1441 FILLER_32_26
*1442 FILLER_32_265
*1443 FILLER_32_277
*1444 FILLER_32_289
*1445 FILLER_32_29
*1446 FILLER_32_301
*1447 FILLER_32_307
*1448 FILLER_32_309
*1449 FILLER_32_321
*1450 FILLER_32_333
*1451 FILLER_32_345
*1452 FILLER_32_357
*1453 FILLER_32_363
*1454 FILLER_32_365
*1455 FILLER_32_377
*1456 FILLER_32_389
*1457 FILLER_32_401
*1458 FILLER_32_41
*1459 FILLER_32_45
*1460 FILLER_32_51
*1461 FILLER_32_6
*1462 FILLER_32_63
*1463 FILLER_32_75
*1464 FILLER_32_83
*1465 FILLER_32_85
*1466 FILLER_32_97
*1467 FILLER_33_106
*1468 FILLER_33_113
*1469 FILLER_33_121
*1470 FILLER_33_125
*1471 FILLER_33_137
*1472 FILLER_33_149
*1473 FILLER_33_15
*1474 FILLER_33_161
*1475 FILLER_33_167
*1476 FILLER_33_169
*1477 FILLER_33_181
*1478 FILLER_33_19
*1479 FILLER_33_193
*1480 FILLER_33_205
*1481 FILLER_33_211
*1482 FILLER_33_222
*1483 FILLER_33_225
*1484 FILLER_33_23
*1485 FILLER_33_237
*1486 FILLER_33_249
*1487 FILLER_33_261
*1488 FILLER_33_273
*1489 FILLER_33_279
*1490 FILLER_33_281
*1491 FILLER_33_293
*1492 FILLER_33_3
*1493 FILLER_33_305
*1494 FILLER_33_317
*1495 FILLER_33_329
*1496 FILLER_33_335
*1497 FILLER_33_337
*1498 FILLER_33_349
*1499 FILLER_33_35
*1500 FILLER_33_361
*1501 FILLER_33_373
*1502 FILLER_33_385
*1503 FILLER_33_391
*1504 FILLER_33_393
*1505 FILLER_33_405
*1506 FILLER_33_47
*1507 FILLER_33_55
*1508 FILLER_33_57
*1509 FILLER_33_70
*1510 FILLER_33_82
*1511 FILLER_33_94
*1512 FILLER_34_109
*1513 FILLER_34_12
*1514 FILLER_34_121
*1515 FILLER_34_133
*1516 FILLER_34_139
*1517 FILLER_34_141
*1518 FILLER_34_153
*1519 FILLER_34_165
*1520 FILLER_34_182
*1521 FILLER_34_194
*1522 FILLER_34_197
*1523 FILLER_34_209
*1524 FILLER_34_215
*1525 FILLER_34_223
*1526 FILLER_34_235
*1527 FILLER_34_247
*1528 FILLER_34_251
*1529 FILLER_34_253
*1530 FILLER_34_26
*1531 FILLER_34_265
*1532 FILLER_34_277
*1533 FILLER_34_289
*1534 FILLER_34_29
*1535 FILLER_34_301
*1536 FILLER_34_307
*1537 FILLER_34_309
*1538 FILLER_34_321
*1539 FILLER_34_333
*1540 FILLER_34_345
*1541 FILLER_34_357
*1542 FILLER_34_363
*1543 FILLER_34_365
*1544 FILLER_34_377
*1545 FILLER_34_389
*1546 FILLER_34_401
*1547 FILLER_34_41
*1548 FILLER_34_53
*1549 FILLER_34_65
*1550 FILLER_34_77
*1551 FILLER_34_83
*1552 FILLER_34_85
*1553 FILLER_34_97
*1554 FILLER_35_111
*1555 FILLER_35_113
*1556 FILLER_35_125
*1557 FILLER_35_137
*1558 FILLER_35_149
*1559 FILLER_35_161
*1560 FILLER_35_167
*1561 FILLER_35_169
*1562 FILLER_35_177
*1563 FILLER_35_189
*1564 FILLER_35_201
*1565 FILLER_35_213
*1566 FILLER_35_221
*1567 FILLER_35_225
*1568 FILLER_35_237
*1569 FILLER_35_249
*1570 FILLER_35_261
*1571 FILLER_35_273
*1572 FILLER_35_279
*1573 FILLER_35_281
*1574 FILLER_35_293
*1575 FILLER_35_305
*1576 FILLER_35_317
*1577 FILLER_35_329
*1578 FILLER_35_33
*1579 FILLER_35_335
*1580 FILLER_35_337
*1581 FILLER_35_349
*1582 FILLER_35_361
*1583 FILLER_35_373
*1584 FILLER_35_385
*1585 FILLER_35_391
*1586 FILLER_35_393
*1587 FILLER_35_405
*1588 FILLER_35_45
*1589 FILLER_35_53
*1590 FILLER_35_57
*1591 FILLER_35_7
*1592 FILLER_35_75
*1593 FILLER_35_87
*1594 FILLER_35_99
*1595 FILLER_36_103
*1596 FILLER_36_114
*1597 FILLER_36_120
*1598 FILLER_36_128
*1599 FILLER_36_14
*1600 FILLER_36_141
*1601 FILLER_36_161
*1602 FILLER_36_173
*1603 FILLER_36_179
*1604 FILLER_36_193
*1605 FILLER_36_197
*1606 FILLER_36_209
*1607 FILLER_36_221
*1608 FILLER_36_233
*1609 FILLER_36_245
*1610 FILLER_36_251
*1611 FILLER_36_253
*1612 FILLER_36_265
*1613 FILLER_36_277
*1614 FILLER_36_289
*1615 FILLER_36_301
*1616 FILLER_36_307
*1617 FILLER_36_309
*1618 FILLER_36_321
*1619 FILLER_36_333
*1620 FILLER_36_345
*1621 FILLER_36_357
*1622 FILLER_36_363
*1623 FILLER_36_365
*1624 FILLER_36_377
*1625 FILLER_36_38
*1626 FILLER_36_389
*1627 FILLER_36_401
*1628 FILLER_36_46
*1629 FILLER_36_50
*1630 FILLER_36_6
*1631 FILLER_36_62
*1632 FILLER_36_74
*1633 FILLER_36_82
*1634 FILLER_36_85
*1635 FILLER_36_97
*1636 FILLER_37_111
*1637 FILLER_37_113
*1638 FILLER_37_125
*1639 FILLER_37_13
*1640 FILLER_37_137
*1641 FILLER_37_149
*1642 FILLER_37_161
*1643 FILLER_37_167
*1644 FILLER_37_175
*1645 FILLER_37_181
*1646 FILLER_37_195
*1647 FILLER_37_207
*1648 FILLER_37_219
*1649 FILLER_37_223
*1650 FILLER_37_238
*1651 FILLER_37_24
*1652 FILLER_37_250
*1653 FILLER_37_262
*1654 FILLER_37_274
*1655 FILLER_37_281
*1656 FILLER_37_293
*1657 FILLER_37_305
*1658 FILLER_37_317
*1659 FILLER_37_329
*1660 FILLER_37_335
*1661 FILLER_37_337
*1662 FILLER_37_34
*1663 FILLER_37_349
*1664 FILLER_37_361
*1665 FILLER_37_373
*1666 FILLER_37_385
*1667 FILLER_37_391
*1668 FILLER_37_393
*1669 FILLER_37_405
*1670 FILLER_37_46
*1671 FILLER_37_54
*1672 FILLER_37_57
*1673 FILLER_37_65
*1674 FILLER_37_75
*1675 FILLER_37_87
*1676 FILLER_37_99
*1677 FILLER_38_109
*1678 FILLER_38_121
*1679 FILLER_38_125
*1680 FILLER_38_137
*1681 FILLER_38_141
*1682 FILLER_38_15
*1683 FILLER_38_153
*1684 FILLER_38_165
*1685 FILLER_38_177
*1686 FILLER_38_189
*1687 FILLER_38_195
*1688 FILLER_38_197
*1689 FILLER_38_209
*1690 FILLER_38_217
*1691 FILLER_38_225
*1692 FILLER_38_244
*1693 FILLER_38_253
*1694 FILLER_38_265
*1695 FILLER_38_27
*1696 FILLER_38_277
*1697 FILLER_38_289
*1698 FILLER_38_3
*1699 FILLER_38_301
*1700 FILLER_38_307
*1701 FILLER_38_309
*1702 FILLER_38_321
*1703 FILLER_38_33
*1704 FILLER_38_333
*1705 FILLER_38_345
*1706 FILLER_38_357
*1707 FILLER_38_363
*1708 FILLER_38_365
*1709 FILLER_38_377
*1710 FILLER_38_389
*1711 FILLER_38_401
*1712 FILLER_38_45
*1713 FILLER_38_57
*1714 FILLER_38_69
*1715 FILLER_38_81
*1716 FILLER_38_85