*SPEF "ieee 1481-1999"
*DESIGN "SarsaNStepsRuido_e9"
*DATE "09:54:55 Friday September 12, 2025"
*VENDOR "The OpenROAD Project"
*PROGRAM "OpenROAD"
*VERSION "edf00dff99f6c40d67a30c0e22a8191c5d2ed9d6"
*DESIGN_FLOW "NAME_SCOPE LOCAL" "PIN_CAP NONE"
*DIVIDER /
*DELIMITER :
*BUS_DELIMITER []
*T_UNIT 1 NS
*C_UNIT 1 PF
*R_UNIT 1 OHM
*L_UNIT 1 HENRY

*NAME_MAP
*1 A[0]
*2 A[1]
*3 B[0]
*4 B[1]
*5 net8
*6 P[1]
*7 P[2]
*8 P[3]
*11 _00_
*12 _01_
*13 _02_
*14 _03_
*15 net1
*16 net2
*17 net3
*18 net4
*19 net5
*20 net6
*21 net7
*22 FILLER_0_15
*23 FILLER_0_27
*24 FILLER_0_29
*25 FILLER_0_3
*26 FILLER_0_34
*27 FILLER_0_41
*28 FILLER_0_49
*29 FILLER_0_55
*30 FILLER_0_57
*31 FILLER_0_69
*32 FILLER_1_15
*33 FILLER_1_21
*34 FILLER_1_3
*35 FILLER_1_31
*36 FILLER_1_43
*37 FILLER_1_55
*38 FILLER_1_57
*39 FILLER_1_69
*40 FILLER_2_16
*41 FILLER_2_29
*42 FILLER_2_3
*43 FILLER_2_41
*44 FILLER_2_53
*45 FILLER_2_65
*46 FILLER_2_77
*47 FILLER_3_15
*48 FILLER_3_27
*49 FILLER_3_3
*50 FILLER_3_39
*51 FILLER_3_51
*52 FILLER_3_55
*53 FILLER_3_57
*54 FILLER_3_69
*55 FILLER_4_15
*56 FILLER_4_27
*57 FILLER_4_3
*58 FILLER_4_36
*59 FILLER_4_48
*60 FILLER_4_60
*61 FILLER_4_72
*62 FILLER_4_80
*63 FILLER_5_18
*64 FILLER_5_24
*65 FILLER_5_28
*66 FILLER_5_40
*67 FILLER_5_52
*68 FILLER_5_57
*69 FILLER_5_6
*70 FILLER_5_69
*71 FILLER_6_18
*72 FILLER_6_26
*73 FILLER_6_33
*74 FILLER_6_45
*75 FILLER_6_57
*76 FILLER_6_6
*77 FILLER_6_69
*78 FILLER_7_15
*79 FILLER_7_27
*80 FILLER_7_3
*81 FILLER_7_39
*82 FILLER_7_51
*83 FILLER_7_55
*84 FILLER_7_57
*85 FILLER_7_69
*86 FILLER_8_15
*87 FILLER_8_27
*88 FILLER_8_29
*89 FILLER_8_3
*90 FILLER_8_41
*91 FILLER_8_53
*92 FILLER_8_65
*93 FILLER_8_77
*94 FILLER_9_18
*95 FILLER_9_26
*96 FILLER_9_29
*97 FILLER_9_37
*98 FILLER_9_42
*99 FILLER_9_49
*100 FILLER_9_55
*101 FILLER_9_57
*102 FILLER_9_6
*103 FILLER_9_69
*104 PHY_EDGE_ROW_0_Left_10
*105 PHY_EDGE_ROW_0_Right_0
*106 PHY_EDGE_ROW_1_Left_11
*107 PHY_EDGE_ROW_1_Right_1
*108 PHY_EDGE_ROW_2_Left_12
*109 PHY_EDGE_ROW_2_Right_2
*110 PHY_EDGE_ROW_3_Left_13
*111 PHY_EDGE_ROW_3_Right_3
*112 PHY_EDGE_ROW_4_Left_14
*113 PHY_EDGE_ROW_4_Right_4
*114 PHY_EDGE_ROW_5_Left_15
*115 PHY_EDGE_ROW_5_Right_5
*116 PHY_EDGE_ROW_6_Left_16
*117 PHY_EDGE_ROW_6_Right_6
*118 PHY_EDGE_ROW_7_Left_17
*119 PHY_EDGE_ROW_7_Right_7
*120 PHY_EDGE_ROW_8_Left_18
*121 PHY_EDGE_ROW_8_Right_8
*122 PHY_EDGE_ROW_9_Left_19
*123 PHY_EDGE_ROW_9_Right_9
*124 SarsaNStepsRuido_e9_8
*125 TAP_TAPCELL_ROW_0_20
*126 TAP_TAPCELL_ROW_0_21
*127 TAP_TAPCELL_ROW_1_22
*128 TAP_TAPCELL_ROW_2_23
*129 TAP_TAPCELL_ROW_3_24
*130 TAP_TAPCELL_ROW_4_25
*131 TAP_TAPCELL_ROW_5_26
*132 TAP_TAPCELL_ROW_6_27
*133 TAP_TAPCELL_ROW_7_28
*134 TAP_TAPCELL_ROW_8_29
*135 TAP_TAPCELL_ROW_9_30
*136 TAP_TAPCELL_ROW_9_31
*137 _04_
*138 _05_
*139 _06_
*140 _07_
*141 _08_
*142 _09_
*143 _10_
*144 input1
*145 input2
*146 input3
*147 input4
*148 output5
*149 output6
*150 output7

*PORTS
A[0] I
A[1] I
B[0] I
B[1] I
P[0] O
P[1] O
P[2] O
P[3] O

*D_NET *1 0.000786235
*CONN
*P A[0] I
*I *144:A I *D sky130_fd_sc_hd__buf_1
*CAP
1 A[0] 0.000393118
2 *144:A 0.000393118
3 *144:A *145:A 0
*RES
1 A[0] *144:A 10.35 
*END

*D_NET *2 0.000884107
*CONN
*P A[1] I
*I *145:A I *D sky130_fd_sc_hd__buf_1
*CAP
1 A[1] 0.000442053
2 *145:A 0.000442053
3 *145:A P[1] 0
4 *144:A *145:A 0
*RES
1 A[1] *145:A 11.04 
*END

*D_NET *3 0.000500287
*CONN
*P B[0] I
*I *146:A I *D sky130_fd_sc_hd__buf_1
*CAP
1 B[0] 0.00023589
2 *146:A 0.00023589
3 *146:A P[0] 0
4 *146:A *147:A 2.85068e-05
*RES
1 B[0] *146:A 5.35677 
*END

*D_NET *4 0.000624926
*CONN
*P B[1] I
*I *147:A I *D sky130_fd_sc_hd__buf_1
*CAP
1 B[1] 0.000298209
2 *147:A 0.000298209
3 *146:A *147:A 2.85068e-05
*RES
1 B[1] *147:A 7.5993 
*END

*D_NET *5 0.000542618
*CONN
*P P[0] O
*I *124:LO O *D sky130_fd_sc_hd__conb_1
*CAP
1 P[0] 0.000271309
2 *124:LO 0.000271309
3 *146:A P[0] 0
*RES
1 *124:LO P[0] 5.86677 
*END

*D_NET *6 0.000864741
*CONN
*P P[1] O
*I *148:X O *D sky130_fd_sc_hd__buf_2
*CAP
1 P[1] 0.00043237
2 *148:X 0.00043237
3 *145:A P[1] 0
*RES
1 *148:X P[1] 10.74 
*END

*D_NET *7 0.000896884
*CONN
*P P[2] O
*I *149:X O *D sky130_fd_sc_hd__buf_2
*CAP
1 P[2] 0.000448442
2 *149:X 0.000448442
3 P[2] P[3] 0
*RES
1 *149:X P[2] 11.55 
*END

*D_NET *8 0.00089547
*CONN
*P P[3] O
*I *150:X O *D sky130_fd_sc_hd__buf_2
*CAP
1 P[3] 0.000447735
2 *150:X 0.000447735
3 P[2] P[3] 0
*RES
1 *150:X P[3] 11.55 
*END

*D_NET *11 0.000730963
*CONN
*I *143:A1 I *D sky130_fd_sc_hd__a21oi_1
*I *140:Y O *D sky130_fd_sc_hd__nand3_1
*CAP
1 *143:A1 0.000253069
2 *140:Y 0.000253069
3 *143:A1 *141:D 9.52646e-05
4 *143:A1 *142:A 5.72004e-05
5 *143:A1 *143:A2 7.23602e-05
6 *143:A1 *21:12 0
*RES
1 *140:Y *143:A1 11.595 
*END

*D_NET *12 0.000363811
*CONN
*I *143:A2 I *D sky130_fd_sc_hd__a21oi_1
*I *142:Y O *D sky130_fd_sc_hd__nand2_1
*CAP
1 *143:A2 0.000145725
2 *142:Y 0.000145725
3 *143:A2 *21:12 0
4 *143:A1 *143:A2 7.23602e-05
*RES
1 *142:Y *143:A2 9.375 
*END

*D_NET *13 0.000338969
*CONN
*I *139:B1 I *D sky130_fd_sc_hd__a31oi_1
*I *137:Y O *D sky130_fd_sc_hd__a21oi_1
*CAP
1 *139:B1 0.000144274
2 *137:Y 0.000144274
3 *139:B1 *139:A1 2.79949e-05
4 *139:B1 *139:A2 1.24295e-05
5 *139:B1 *139:A3 0
6 *139:B1 *15:10 0
7 *139:B1 *15:14 9.99636e-06
*RES
1 *137:Y *139:B1 9.015 
*END

*D_NET *14 0.000685966
*CONN
*I *139:A3 I *D sky130_fd_sc_hd__a31oi_1
*I *138:Y O *D sky130_fd_sc_hd__nand2b_1
*CAP
1 *139:A3 0.000309724
2 *138:Y 0.000309724
3 *139:A3 *138:A_N 1.34503e-05
4 *139:A3 *138:B 5.30673e-05
5 *139:A3 *16:36 0
6 *139:B1 *139:A3 0
*RES
1 *138:Y *139:A3 11.1 
*END

*D_NET *15 0.00273733
*CONN
*I *141:C I *D sky130_fd_sc_hd__and4_1
*I *140:C I *D sky130_fd_sc_hd__nand3_1
*I *137:B1 I *D sky130_fd_sc_hd__a21oi_1
*I *139:A2 I *D sky130_fd_sc_hd__a31oi_1
*I *144:X O *D sky130_fd_sc_hd__buf_1
*CAP
1 *141:C 0
2 *140:C 0.000253661
3 *137:B1 0
4 *139:A2 3.28759e-05
5 *144:X 0.000177422
6 *15:30 0.000468698
7 *15:14 0.000109701
8 *15:10 0.000469284
9 *139:A2 *137:A1 0.000164874
10 *139:A2 *139:A1 4.78458e-05
11 *140:C *140:B 8.8266e-05
12 *140:C *141:D 1.19928e-05
13 *140:C *16:38 0.000151541
14 *140:C *17:38 4.60584e-05
15 *15:10 *16:36 2.92496e-05
16 *15:14 *137:A1 8.8266e-05
17 *15:14 *139:A1 3.51807e-05
18 *15:14 *16:12 4.66108e-05
19 *15:14 *16:14 4.82863e-05
20 *15:30 *16:36 0.000445086
21 *139:B1 *139:A2 1.24295e-05
22 *139:B1 *15:10 0
23 *139:B1 *15:14 9.99636e-06
*RES
1 *144:X *15:10 5.94 
2 *15:10 *15:14 3.83 
3 *15:14 *139:A2 3.085 
4 *15:14 *137:B1 1.6 
5 *15:10 *15:30 7.205 
6 *15:30 *140:C 5.17 
7 *15:30 *141:C 1.6 
*END

*D_NET *16 0.00303907
*CONN
*I *141:B I *D sky130_fd_sc_hd__and4_1
*I *142:A I *D sky130_fd_sc_hd__nand2_1
*I *140:B I *D sky130_fd_sc_hd__nand3_1
*I *137:A2 I *D sky130_fd_sc_hd__a21oi_1
*I *139:A1 I *D sky130_fd_sc_hd__a31oi_1
*I *145:X O *D sky130_fd_sc_hd__buf_1
*CAP
1 *141:B 0
2 *142:A 0.000147295
3 *140:B 1.22258e-05
4 *137:A2 0
5 *139:A1 0.000107631
6 *145:X 0.000234155
7 *16:38 0.000186551
8 *16:36 0.000272964
9 *16:14 0.00011631
10 *16:12 0.000488769
11 *139:A1 *148:A 0.000164874
12 *140:B *141:A 3.66286e-05
13 *140:B *17:38 4.99619e-05
14 *142:A *17:10 0
15 *142:A *17:12 0
16 *16:12 *148:A 9.81318e-05
17 *16:14 *148:A 1.61831e-05
18 *16:38 *141:A 8.65961e-05
19 *16:38 *141:D 4.35348e-05
20 *139:A2 *139:A1 4.78458e-05
21 *139:A3 *16:36 0
22 *139:B1 *139:A1 2.79949e-05
23 *140:C *140:B 8.8266e-05
24 *140:C *16:38 0.000151541
25 *143:A1 *142:A 5.72004e-05
26 *15:10 *16:36 2.92496e-05
27 *15:14 *139:A1 3.51807e-05
28 *15:14 *16:12 4.66108e-05
29 *15:14 *16:14 4.82863e-05
30 *15:30 *16:36 0.000445086
*RES
1 *145:X *16:12 9.755 
2 *16:12 *16:14 0.45 
3 *16:14 *139:A1 4.75 
4 *16:14 *137:A2 1.6 
5 *16:12 *16:36 9.715 
6 *16:36 *16:38 1.485 
7 *16:38 *140:B 2.395 
8 *16:38 *142:A 8.255 
9 *16:36 *141:B 1.6 
*END

*D_NET *17 0.00454996
*CONN
*I *141:A I *D sky130_fd_sc_hd__and4_1
*I *140:A I *D sky130_fd_sc_hd__nand3_1
*I *138:A_N I *D sky130_fd_sc_hd__nand2b_1
*I *137:A1 I *D sky130_fd_sc_hd__a21oi_1
*I *146:X O *D sky130_fd_sc_hd__buf_1
*CAP
1 *141:A 2.16346e-05
2 *140:A 0
3 *138:A_N 0.000150265
4 *137:A1 0.000413322
5 *146:X 0.000605772
6 *17:38 0.000112677
7 *17:12 0.000719137
8 *17:10 0.000852365
9 *137:A1 *138:B 2.92496e-05
10 *138:A_N *138:B 0.000175689
11 *141:A *141:D 0.000124007
12 *17:10 *138:B 2.14129e-05
13 *17:10 *18:12 0.000186099
14 *17:12 *138:B 0.000336077
15 *17:38 *141:D 0.000316421
16 *139:A2 *137:A1 0.000164874
17 *139:A3 *138:A_N 1.34503e-05
18 *140:B *141:A 3.66286e-05
19 *140:B *17:38 4.99619e-05
20 *140:C *17:38 4.60584e-05
21 *142:A *17:10 0
22 *142:A *17:12 0
23 *15:14 *137:A1 8.8266e-05
24 *16:38 *141:A 8.65961e-05
*RES
1 *146:X *17:10 11.865 
2 *17:10 *17:12 3.93 
3 *17:12 *137:A1 9.135 
4 *17:12 *138:A_N 6.48 
5 *17:10 *17:38 4.865 
6 *17:38 *140:A 1.6 
7 *17:38 *141:A 2.74 
*END

*D_NET *18 0.00380513
*CONN
*I *142:B I *D sky130_fd_sc_hd__nand2_1
*I *141:D I *D sky130_fd_sc_hd__and4_1
*I *138:B I *D sky130_fd_sc_hd__nand2b_1
*I *147:X O *D sky130_fd_sc_hd__buf_1
*CAP
1 *142:B 0.00019566
2 *141:D 0.000369489
3 *138:B 0.000227891
4 *147:X 0.00032107
5 *18:12 0.000686082
6 *18:8 0.00060543
7 *141:D *21:12 6.69608e-06
8 *137:A1 *138:B 2.92496e-05
9 *138:A_N *138:B 0.000175689
10 *139:A3 *138:B 5.30673e-05
11 *140:C *141:D 1.19928e-05
12 *141:A *141:D 0.000124007
13 *143:A1 *141:D 9.52646e-05
14 *16:38 *141:D 4.35348e-05
15 *17:10 *138:B 2.14129e-05
16 *17:10 *18:12 0.000186099
17 *17:12 *138:B 0.000336077
18 *17:38 *141:D 0.000316421
*RES
1 *147:X *18:8 6.46 
2 *18:8 *18:12 4.145 
3 *18:12 *138:B 9.6375 
4 *18:12 *141:D 11.58 
5 *18:8 *142:B 4.465 
*END

*D_NET *19 0.00160037
*CONN
*I *148:A I *D sky130_fd_sc_hd__buf_2
*I *139:Y O *D sky130_fd_sc_hd__a31oi_1
*CAP
1 *148:A 0.000660591
2 *139:Y 0.000660591
3 *139:A1 *148:A 0.000164874
4 *16:12 *148:A 9.81318e-05
5 *16:14 *148:A 1.61831e-05
*RES
1 *139:Y *148:A 15.495 
*END

*D_NET *20 0.00113008
*CONN
*I *149:A I *D sky130_fd_sc_hd__buf_2
*I *143:Y O *D sky130_fd_sc_hd__a21oi_1
*CAP
1 *149:A 0.000516245
2 *143:Y 0.000516245
3 *149:A *143:B1 9.39355e-05
4 *149:A *150:A 3.64998e-06
*RES
1 *143:Y *149:A 15.09 
*END

*D_NET *21 0.00210199
*CONN
*I *150:A I *D sky130_fd_sc_hd__buf_2
*I *143:B1 I *D sky130_fd_sc_hd__a21oi_1
*I *141:X O *D sky130_fd_sc_hd__and4_1
*CAP
1 *150:A 0.000576191
2 *143:B1 0.00010958
3 *141:X 0.000313083
4 *21:12 0.000998855
5 *141:D *21:12 6.69608e-06
6 *143:A1 *21:12 0
7 *143:A2 *21:12 0
8 *149:A *143:B1 9.39355e-05
9 *149:A *150:A 3.64998e-06
*RES
1 *141:X *21:12 10.16 
2 *21:12 *143:B1 3.775 
3 *21:12 *150:A 14.6 
*END
