*SPEF "ieee 1481-1999"
*DESIGN "mult4_SARSANPASOS_VENTAJA_RUIDO_e8_SARSA_RUIDO_e9_SARSA_RUIDO_e9_SARSA_RUIDO_e9"
*DATE "18:33:53 Tuesday September 16, 2025"
*VENDOR "The OpenROAD Project"
*PROGRAM "OpenROAD"
*VERSION "edf00dff99f6c40d67a30c0e22a8191c5d2ed9d6"
*DESIGN_FLOW "NAME_SCOPE LOCAL" "PIN_CAP NONE"
*DIVIDER /
*DELIMITER :
*BUS_DELIMITER []
*T_UNIT 1 NS
*C_UNIT 1 PF
*R_UNIT 1 OHM
*L_UNIT 1 HENRY

*NAME_MAP
*1 A[0]
*2 A[1]
*3 A[2]
*4 A[3]
*5 B[0]
*6 B[1]
*7 B[2]
*8 B[3]
*9 P[0]
*10 P[1]
*11 P[2]
*12 P[3]
*13 P[4]
*14 P[5]
*15 P[6]
*16 P[7]
*19 _000_
*20 _001_
*21 _002_
*22 _003_
*23 _004_
*24 _005_
*25 _006_
*26 _007_
*27 _008_
*28 _009_
*29 _010_
*30 _011_
*31 _012_
*32 _013_
*33 _014_
*34 _015_
*35 _016_
*36 _017_
*37 _018_
*38 _019_
*39 _020_
*40 _021_
*41 _022_
*42 _023_
*43 _024_
*44 _025_
*45 _026_
*46 _027_
*47 _028_
*48 _029_
*49 _030_
*50 _031_
*51 _032_
*52 _033_
*53 _034_
*54 _035_
*55 _036_
*56 _037_
*57 _038_
*58 _039_
*59 _040_
*60 _041_
*61 _042_
*62 _043_
*63 _044_
*64 _045_
*65 _046_
*66 net1
*67 net10
*68 net11
*69 net12
*70 net13
*71 net14
*72 net15
*73 net16
*74 net2
*75 net3
*76 net4
*77 net5
*78 net6
*79 net7
*80 net8
*81 net9
*82 FILLER_0_14
*83 FILLER_0_20
*84 FILLER_0_27
*85 FILLER_0_3
*86 FILLER_0_43
*87 FILLER_0_51
*88 FILLER_0_57
*89 FILLER_0_65
*90 FILLER_0_70
*91 FILLER_0_78
*92 FILLER_1_23
*93 FILLER_1_27
*94 FILLER_1_3
*95 FILLER_1_41
*96 FILLER_1_57
*97 FILLER_1_72
*98 FILLER_1_80
*99 FILLER_2_11
*100 FILLER_2_21
*101 FILLER_2_27
*102 FILLER_2_29
*103 FILLER_2_3
*104 FILLER_2_41
*105 FILLER_2_50
*106 FILLER_2_59
*107 FILLER_2_69
*108 FILLER_3_18
*109 FILLER_3_22
*110 FILLER_3_3
*111 FILLER_3_42
*112 FILLER_3_55
*113 FILLER_3_57
*114 FILLER_3_75
*115 FILLER_4_10
*116 FILLER_4_23
*117 FILLER_4_27
*118 FILLER_4_29
*119 FILLER_4_41
*120 FILLER_4_50
*121 FILLER_4_62
*122 FILLER_4_78
*123 FILLER_5_14
*124 FILLER_5_3
*125 FILLER_5_31
*126 FILLER_5_37
*127 FILLER_5_46
*128 FILLER_5_54
*129 FILLER_5_65
*130 FILLER_6_13
*131 FILLER_6_25
*132 FILLER_6_29
*133 FILLER_6_37
*134 FILLER_6_59
*135 FILLER_6_69
*136 FILLER_6_77
*137 FILLER_7_12
*138 FILLER_7_18
*139 FILLER_7_23
*140 FILLER_7_35
*141 FILLER_7_47
*142 FILLER_7_55
*143 FILLER_7_57
*144 FILLER_7_6
*145 FILLER_7_64
*146 FILLER_7_76
*147 FILLER_8_21
*148 FILLER_8_27
*149 FILLER_8_29
*150 FILLER_8_3
*151 FILLER_8_37
*152 FILLER_8_61
*153 FILLER_8_7
*154 FILLER_8_73
*155 FILLER_9_19
*156 FILLER_9_27
*157 FILLER_9_29
*158 FILLER_9_35
*159 FILLER_9_47
*160 FILLER_9_55
*161 FILLER_9_64
*162 FILLER_9_7
*163 FILLER_9_70
*164 FILLER_9_78
*165 PHY_EDGE_ROW_0_Left_10
*166 PHY_EDGE_ROW_0_Right_0
*167 PHY_EDGE_ROW_1_Left_11
*168 PHY_EDGE_ROW_1_Right_1
*169 PHY_EDGE_ROW_2_Left_12
*170 PHY_EDGE_ROW_2_Right_2
*171 PHY_EDGE_ROW_3_Left_13
*172 PHY_EDGE_ROW_3_Right_3
*173 PHY_EDGE_ROW_4_Left_14
*174 PHY_EDGE_ROW_4_Right_4
*175 PHY_EDGE_ROW_5_Left_15
*176 PHY_EDGE_ROW_5_Right_5
*177 PHY_EDGE_ROW_6_Left_16
*178 PHY_EDGE_ROW_6_Right_6
*179 PHY_EDGE_ROW_7_Left_17
*180 PHY_EDGE_ROW_7_Right_7
*181 PHY_EDGE_ROW_8_Left_18
*182 PHY_EDGE_ROW_8_Right_8
*183 PHY_EDGE_ROW_9_Left_19
*184 PHY_EDGE_ROW_9_Right_9
*185 TAP_TAPCELL_ROW_0_20
*186 TAP_TAPCELL_ROW_0_21
*187 TAP_TAPCELL_ROW_1_22
*188 TAP_TAPCELL_ROW_2_23
*189 TAP_TAPCELL_ROW_3_24
*190 TAP_TAPCELL_ROW_4_25
*191 TAP_TAPCELL_ROW_5_26
*192 TAP_TAPCELL_ROW_6_27
*193 TAP_TAPCELL_ROW_7_28
*194 TAP_TAPCELL_ROW_8_29
*195 TAP_TAPCELL_ROW_9_30
*196 TAP_TAPCELL_ROW_9_31
*197 _047_
*198 _048_
*199 _049_
*200 _050_
*201 _051_
*202 _052_
*203 _053_
*204 _054_
*205 _055_
*206 _056_
*207 _057_
*208 _058_
*209 _059_
*210 _060_
*211 _061_
*212 _062_
*213 _063_
*214 _064_
*215 _065_
*216 _066_
*217 _067_
*218 _068_
*219 _069_
*220 _070_
*221 _071_
*222 _072_
*223 _073_
*224 _074_
*225 _075_
*226 _076_
*227 _077_
*228 _078_
*229 _079_
*230 _080_
*231 _081_
*232 _082_
*233 _083_
*234 _084_
*235 _085_
*236 _086_
*237 _087_
*238 _088_
*239 _089_
*240 _090_
*241 _091_
*242 _092_
*243 _093_
*244 _094_
*245 _095_
*246 _096_
*247 _097_
*248 _098_
*249 _099_
*250 _100_
*251 _101_
*252 input1
*253 input2
*254 input3
*255 input4
*256 input5
*257 input6
*258 input7
*259 input8
*260 output10
*261 output11
*262 output12
*263 output13
*264 output14
*265 output15
*266 output16
*267 output9

*PORTS
A[0] I
A[1] I
A[2] I
A[3] I
B[0] I
B[1] I
B[2] I
B[3] I
P[0] O
P[1] O
P[2] O
P[3] O
P[4] O
P[5] O
P[6] O
P[7] O

*D_NET *1 0.000871757
*CONN
*P A[0] I
*I *252:A I *D sky130_fd_sc_hd__buf_1
*CAP
1 A[0] 0.000408264
2 *252:A 0.000408264
3 *252:A *202:B 0
4 *252:A *253:A 0
5 *252:A *23:14 5.52302e-05
*RES
1 A[0] *252:A 21.8357 
*END

*D_NET *2 0.000874411
*CONN
*P A[1] I
*I *253:A I *D sky130_fd_sc_hd__buf_1
*CAP
1 A[1] 0.00040959
2 *253:A 0.00040959
3 *253:A P[1] 0
4 *253:A *23:14 5.52302e-05
5 *252:A *253:A 0
*RES
1 A[1] *253:A 21.8357 
*END

*D_NET *3 0.00052235
*CONN
*P A[2] I
*I *254:A I *D sky130_fd_sc_hd__dlymetal6s2s_1
*CAP
1 A[2] 0.000220112
2 *254:A 0.000220112
3 *254:A P[7] 0
4 *254:A *255:A 2.25951e-05
5 *254:A *258:A 3.45861e-05
6 *254:A *75:12 2.49459e-05
*RES
1 A[2] *254:A 18.73 
*END

*D_NET *4 0.000576861
*CONN
*P A[3] I
*I *255:A I *D sky130_fd_sc_hd__buf_1
*CAP
1 A[3] 0.000262749
2 *255:A 0.000262749
3 *255:A P[7] 2.87684e-05
4 *254:A *255:A 2.25951e-05
*RES
1 A[3] *255:A 20.4803 
*END

*D_NET *5 0.000848171
*CONN
*P B[0] I
*I *256:A I *D sky130_fd_sc_hd__buf_1
*CAP
1 B[0] 0.000407709
2 *256:A 0.000407709
3 *256:A P[0] 0
4 *256:A *257:A 0
5 *256:A *23:14 3.27526e-05
*RES
1 B[0] *256:A 21.9607 
*END

*D_NET *6 0.00129476
*CONN
*P B[1] I
*I *257:A I *D sky130_fd_sc_hd__buf_1
*CAP
1 B[1] 0.000620614
2 *257:A 0.000620614
3 *257:A P[1] 0
4 *257:A *19:12 0
5 *257:A *23:14 0
6 *257:A *66:42 0
7 *257:A *78:42 5.35314e-05
8 *256:A *257:A 0
*RES
1 B[1] *257:A 24.6929 
*END

*D_NET *7 0.00096902
*CONN
*P B[2] I
*I *258:A I *D sky130_fd_sc_hd__buf_1
*CAP
1 B[2] 0.000285527
2 *258:A 0.000285527
3 *258:A *230:A 0
4 *258:A *259:A 0.00030815
5 *258:A *80:23 5.52302e-05
6 *254:A *258:A 3.45861e-05
*RES
1 B[2] *258:A 22.4947 
*END

*D_NET *8 0.000897782
*CONN
*P B[3] I
*I *259:A I *D sky130_fd_sc_hd__clkbuf_2
*CAP
1 B[3] 0.000294816
2 *259:A 0.000294816
3 *258:A *259:A 0.00030815
*RES
1 B[3] *259:A 21.8017 
*END

*D_NET *9 0.000967277
*CONN
*P P[0] O
*I *267:X O *D sky130_fd_sc_hd__buf_2
*CAP
1 P[0] 0.000469183
2 *267:X 0.000469183
3 P[0] *267:A 2.89114e-05
4 *256:A P[0] 0
*RES
1 *267:X P[0] 22.05 
*END

*D_NET *10 0.00167323
*CONN
*P P[1] O
*I *260:X O *D sky130_fd_sc_hd__buf_2
*CAP
1 P[1] 0.000475728
2 *260:X 0.000475728
3 P[1] *197:B 0.00021443
4 P[1] *199:A_N 1.02504e-05
5 P[1] *199:C 3.2454e-05
6 P[1] *23:14 0.000326653
7 P[1] *66:36 5.52302e-05
8 P[1] *66:58 8.27532e-05
9 *253:A P[1] 0
10 *257:A P[1] 0
*RES
1 *260:X P[1] 25.3179 
*END

*D_NET *11 0.00096179
*CONN
*P P[2] O
*I *261:X O *D sky130_fd_sc_hd__buf_2
*CAP
1 P[2] 0.000466439
2 *261:X 0.000466439
3 P[2] *261:A 2.89114e-05
*RES
1 *261:X P[2] 22.05 
*END

*D_NET *12 0.000565697
*CONN
*P P[3] O
*I *262:X O *D sky130_fd_sc_hd__buf_2
*CAP
1 P[3] 0.000265579
2 *262:X 0.000265579
3 P[3] P[4] 0
4 P[3] *262:A 3.454e-05
*RES
1 *262:X P[3] 18.8021 
*END

*D_NET *13 0.000471753
*CONN
*P P[4] O
*I *263:X O *D sky130_fd_sc_hd__buf_2
*CAP
1 P[4] 0.0002313
2 *263:X 0.0002313
3 P[4] *263:A 9.15186e-06
4 P[3] P[4] 0
*RES
1 *263:X P[4] 18.1949 
*END

*D_NET *14 0.000951893
*CONN
*P P[5] O
*I *264:X O *D sky130_fd_sc_hd__buf_2
*CAP
1 P[5] 0.000475946
2 *264:X 0.000475946
*RES
1 *264:X P[5] 23.2643 
*END

*D_NET *15 0.0010184
*CONN
*P P[6] O
*I *265:X O *D sky130_fd_sc_hd__buf_2
*CAP
1 P[6] 0.000509199
2 *265:X 0.000509199
*RES
1 *265:X P[6] 23.3893 
*END

*D_NET *16 0.000658898
*CONN
*P P[7] O
*I *266:X O *D sky130_fd_sc_hd__buf_2
*CAP
1 P[7] 0.000294269
2 *266:X 0.000294269
3 P[7] *266:A 4.15914e-05
4 *254:A P[7] 0
5 *255:A P[7] 2.87684e-05
*RES
1 *266:X P[7] 19.4092 
*END

*D_NET *19 0.00151103
*CONN
*I *204:A3 I *D sky130_fd_sc_hd__a31o_1
*I *203:C I *D sky130_fd_sc_hd__and4_1
*I *197:Y O *D sky130_fd_sc_hd__nand2_1
*CAP
1 *204:A3 0.000120722
2 *203:C 2.05045e-05
3 *197:Y 0.000205658
4 *19:12 0.000346885
5 *203:C *204:A2 5.92431e-05
6 *203:C *204:B1 1.789e-05
7 *204:A3 *204:A2 0.000310286
8 *204:A3 *204:B1 0.00016274
9 *204:A3 *206:A 6.57815e-05
10 *204:A3 *226:A2 1.24368e-05
11 *204:A3 *28:10 2.51343e-06
12 *19:12 *197:A 7.8195e-05
13 *19:12 *23:14 0.000108173
14 *257:A *19:12 0
*RES
1 *197:Y *19:12 21.4071 
2 *19:12 *203:C 10.0321 
3 *19:12 *204:A3 13.1393 
*END

*D_NET *20 0.00233446
*CONN
*I *199:A_N I *D sky130_fd_sc_hd__and3b_1
*I *219:B1_N I *D sky130_fd_sc_hd__o21bai_2
*I *216:C_N I *D sky130_fd_sc_hd__or3b_1
*I *198:X O *D sky130_fd_sc_hd__and4_1
*CAP
1 *199:A_N 0.000103919
2 *219:B1_N 0.00013581
3 *216:C_N 5.54021e-05
4 *198:X 0
5 *20:12 0.00055681
6 *20:4 0.000469517
7 *199:A_N *199:C 4.97121e-06
8 *199:A_N *36:26 5.52238e-05
9 *199:A_N *66:42 3.69697e-05
10 *199:A_N *74:10 2.56601e-05
11 *216:C_N *214:B 0.000146523
12 *216:C_N *216:A 0.00014183
13 *216:C_N *35:10 9.79767e-05
14 *219:B1_N *219:A2 0
15 *219:B1_N *39:8 2.89114e-05
16 *219:B1_N *80:29 3.17163e-05
17 *219:B1_N *80:50 6.92433e-05
18 *20:12 *219:A2 0
19 *20:12 *36:26 0.000360894
20 *20:12 *74:10 0
21 *20:12 *80:50 2.8266e-06
22 P[1] *199:A_N 1.02504e-05
*RES
1 *198:X *20:4 9.3 
2 *20:4 *20:12 9.48214 
3 *20:12 *216:C_N 16.3893 
4 *20:12 *219:B1_N 16.5857 
5 *20:4 *199:A_N 20.175 
*END

*D_NET *21 0.00158204
*CONN
*I *210:A I *D sky130_fd_sc_hd__or4b_2
*I *226:A1 I *D sky130_fd_sc_hd__a21o_1
*I *200:X O *D sky130_fd_sc_hd__and2_1
*CAP
1 *210:A 2.73396e-05
2 *226:A1 0.000233844
3 *200:X 0.000139707
4 *21:10 0.000400891
5 *210:A *201:B 0.000129515
6 *210:A *210:D_N 5.33005e-05
7 *210:A *29:6 9.90367e-05
8 *210:A *75:60 1.33343e-05
9 *226:A1 *201:A 0
10 *226:A1 *204:A1 5.52238e-05
11 *226:A1 *206:A 5.80706e-06
12 *226:A1 *211:B1 0.000170654
13 *226:A1 *226:A2 9.69119e-06
14 *226:A1 *22:10 2.49484e-05
15 *226:A1 *36:26 0.000140393
16 *21:10 *30:8 7.83587e-05
17 *21:10 *46:10 0
*RES
1 *200:X *21:10 15.9786 
2 *21:10 *226:A1 18.7286 
3 *21:10 *210:A 15.1571 
*END

*D_NET *22 0.0024032
*CONN
*I *211:B2 I *D sky130_fd_sc_hd__a2bb2o_1
*I *206:A I *D sky130_fd_sc_hd__xnor2_1
*I *201:Y O *D sky130_fd_sc_hd__nand2_1
*CAP
1 *211:B2 0
2 *206:A 0.00020782
3 *201:Y 0.00024025
4 *22:10 0.00044807
5 *206:A *201:A 5.59013e-05
6 *206:A *204:A1 2.1527e-05
7 *206:A *204:B1 9.80173e-05
8 *206:A *205:A_N 0.000219064
9 *206:A *205:B 0.000109918
10 *206:A *226:A2 3.30352e-05
11 *206:A *23:14 4.46186e-06
12 *206:A *23:34 7.6021e-05
13 *206:A *24:8 0.000353086
14 *22:10 *210:B 6.42338e-05
15 *22:10 *211:B1 0.000125724
16 *22:10 *23:34 2.49484e-05
17 *22:10 *38:6 0.000224583
18 *204:A3 *206:A 6.57815e-05
19 *226:A1 *206:A 5.80706e-06
20 *226:A1 *22:10 2.49484e-05
*RES
1 *201:Y *22:10 18.2286 
2 *22:10 *206:A 21.2107 
3 *22:10 *211:B2 13.8 
*END

*D_NET *23 0.00442706
*CONN
*I *210:B I *D sky130_fd_sc_hd__or4b_2
*I *211:A1_N I *D sky130_fd_sc_hd__a2bb2o_1
*I *204:B1 I *D sky130_fd_sc_hd__a31o_1
*I *203:D I *D sky130_fd_sc_hd__and4_1
*I *202:X O *D sky130_fd_sc_hd__and2_1
*CAP
1 *210:B 5.5875e-05
2 *211:A1_N 2.91239e-05
3 *204:B1 7.45611e-05
4 *203:D 0
5 *202:X 0.000745517
6 *23:34 0.000185505
7 *23:16 7.45611e-05
8 *23:14 0.000846024
9 *210:B *210:C 1.59347e-05
10 *210:B *31:10 7.70035e-05
11 *211:A1_N *36:26 4.82865e-05
12 *211:A1_N *39:8 9.66977e-05
13 *23:14 *197:A 9.56151e-05
14 *23:14 *197:B 3.52749e-05
15 *23:14 *201:A 7.49162e-06
16 *23:14 *260:A 7.50564e-05
17 *23:14 *66:10 0.000188997
18 *23:14 *66:36 0.000434162
19 *23:14 *77:10 8.25098e-05
20 *23:14 *77:30 0.000100376
21 *23:34 *210:C 1.08847e-05
22 *23:34 *28:10 0.000121254
23 P[1] *23:14 0.000326653
24 *203:C *204:B1 1.789e-05
25 *204:A3 *204:B1 0.00016274
26 *206:A *204:B1 9.80173e-05
27 *206:A *23:14 4.46186e-06
28 *206:A *23:34 7.6021e-05
29 *252:A *23:14 5.52302e-05
30 *253:A *23:14 5.52302e-05
31 *256:A *23:14 3.27526e-05
32 *257:A *23:14 0
33 *19:12 *23:14 0.000108173
34 *22:10 *210:B 6.42338e-05
35 *22:10 *23:34 2.49484e-05
*RES
1 *202:X *23:14 31.4964 
2 *23:14 *23:16 4.5 
3 *23:16 *203:D 9.3 
4 *23:16 *204:B1 11.6214 
5 *23:14 *23:34 2.55357 
6 *23:34 *211:A1_N 14.7464 
7 *23:34 *210:B 15.4429 
*END

*D_NET *24 0.00209424
*CONN
*I *205:A_N I *D sky130_fd_sc_hd__and2b_1
*I *226:B1 I *D sky130_fd_sc_hd__a21o_1
*I *203:X O *D sky130_fd_sc_hd__and4_1
*CAP
1 *205:A_N 0.00032122
2 *226:B1 9.45237e-05
3 *203:X 0.000133635
4 *24:8 0.000549379
5 *205:A_N *205:B 2.24763e-05
6 *205:A_N *206:B 0.000105163
7 *226:B1 *201:A 6.42338e-05
8 *226:B1 *226:A2 6.8646e-06
9 *226:B1 *36:41 0
10 *24:8 *201:A 0.000224596
11 *206:A *205:A_N 0.000219064
12 *206:A *24:8 0.000353086
*RES
1 *203:X *24:8 13.1393 
2 *24:8 *226:B1 20.2464 
3 *24:8 *205:A_N 15.5857 
*END

*D_NET *25 0.0017199
*CONN
*I *205:B I *D sky130_fd_sc_hd__and2b_1
*I *226:A2 I *D sky130_fd_sc_hd__a21o_1
*I *204:X O *D sky130_fd_sc_hd__a31o_1
*CAP
1 *205:B 0.00037235
2 *226:A2 0.00021627
3 *204:X 0
4 *25:4 0.00058862
5 *205:B *206:B 0.000100625
6 *226:A2 *201:A 0.000125731
7 *226:A2 *204:A1 6.59765e-05
8 *226:A2 *204:A2 5.59013e-05
9 *204:A3 *226:A2 1.24368e-05
10 *205:A_N *205:B 2.24763e-05
11 *206:A *205:B 0.000109918
12 *206:A *226:A2 3.30352e-05
13 *226:A1 *226:A2 9.69119e-06
14 *226:B1 *226:A2 6.8646e-06
*RES
1 *204:X *25:4 9.3 
2 *25:4 *226:A2 22.4071 
3 *25:4 *205:B 14.7821 
*END

*D_NET *26 0.000276887
*CONN
*I *206:B I *D sky130_fd_sc_hd__xnor2_1
*I *205:X O *D sky130_fd_sc_hd__and2b_1
*CAP
1 *206:B 3.55493e-05
2 *205:X 3.55493e-05
3 *205:A_N *206:B 0.000105163
4 *205:B *206:B 0.000100625
*RES
1 *205:X *206:B 20.3679 
*END

*D_NET *27 0.0035003
*CONN
*I *213:A_N I *D sky130_fd_sc_hd__nand3b_2
*I *212:B1_N I *D sky130_fd_sc_hd__a21bo_1
*I *247:A1 I *D sky130_fd_sc_hd__a21oi_1
*I *241:C I *D sky130_fd_sc_hd__and3_1
*I *207:Y O *D sky130_fd_sc_hd__nand2_1
*CAP
1 *213:A_N 0.000155398
2 *212:B1_N 0
3 *247:A1 6.50565e-05
4 *241:C 6.2583e-05
5 *207:Y 0
6 *27:26 0.000980675
7 *27:10 0.000404263
8 *27:4 0.0011019
9 *213:A_N *53:10 6.74911e-05
10 *241:C *241:A 6.92672e-05
11 *247:A1 *241:A 3.98559e-05
12 *247:A1 *247:A2 5.71472e-05
13 *27:10 *230:C 0
14 *27:10 *243:B 0
15 *27:10 *60:10 0
16 *27:26 *231:A_N 8.25843e-06
17 *27:26 *231:C 0.000186669
18 *27:26 *234:A 9.99644e-06
19 *27:26 *234:B 9.39925e-05
20 *27:26 *49:6 8.25843e-06
21 *27:26 *53:10 0.000132341
22 *27:26 *75:18 5.71472e-05
*RES
1 *207:Y *27:4 9.3 
2 *27:4 *27:10 13.6786 
3 *27:10 *241:C 10.5143 
4 *27:10 *247:A1 10.6571 
5 *27:4 *27:26 10.8036 
6 *27:26 *212:B1_N 9.3 
7 *27:26 *213:A_N 20.8893 
*END

*D_NET *28 0.00162168
*CONN
*I *211:A2_N I *D sky130_fd_sc_hd__a2bb2o_1
*I *210:C I *D sky130_fd_sc_hd__or4b_2
*I *208:Y O *D sky130_fd_sc_hd__nand2_1
*CAP
1 *211:A2_N 0
2 *210:C 0.000178474
3 *208:Y 0.000324987
4 *28:10 0.000503461
5 *210:C *31:10 0.000145484
6 *210:C *78:63 0
7 *28:10 *204:A2 2.54304e-06
8 *28:10 *74:39 0.00031614
9 *28:10 *78:63 0
10 *204:A3 *28:10 2.51343e-06
11 *210:B *210:C 1.59347e-05
12 *23:34 *210:C 1.08847e-05
13 *23:34 *28:10 0.000121254
*RES
1 *208:Y *28:10 18.8536 
2 *28:10 *210:C 17.1929 
3 *28:10 *211:A2_N 13.8 
*END

*D_NET *29 0.00143856
*CONN
*I *210:D_N I *D sky130_fd_sc_hd__or4b_2
*I *211:B1 I *D sky130_fd_sc_hd__a2bb2o_1
*I *209:X O *D sky130_fd_sc_hd__and2_1
*CAP
1 *210:D_N 4.42265e-05
2 *211:B1 7.29891e-05
3 *209:X 7.40527e-05
4 *29:6 0.000191268
5 *210:D_N *201:B 3.3283e-05
6 *210:D_N *38:6 8.36572e-05
7 *29:6 *38:6 0.000354901
8 *29:6 *75:60 0.000135471
9 *210:A *210:D_N 5.33005e-05
10 *210:A *29:6 9.90367e-05
11 *226:A1 *211:B1 0.000170654
12 *22:10 *211:B1 0.000125724
*RES
1 *209:X *29:6 12.7107 
2 *29:6 *211:B1 20.55 
3 *29:6 *210:D_N 10.675 
*END

*D_NET *30 0.00366901
*CONN
*I *212:A1 I *D sky130_fd_sc_hd__a21bo_1
*I *235:A I *D sky130_fd_sc_hd__and3_1
*I *237:A1 I *D sky130_fd_sc_hd__a21oi_1
*I *236:A I *D sky130_fd_sc_hd__nand3_1
*I *213:B I *D sky130_fd_sc_hd__nand3b_2
*I *210:X O *D sky130_fd_sc_hd__or4b_2
*CAP
1 *212:A1 0.00013921
2 *235:A 0.000129128
3 *237:A1 0
4 *236:A 0.000154844
5 *213:B 0.000147158
6 *210:X 0.00021003
7 *30:31 0.000310296
8 *30:29 0.000557962
9 *30:12 0.000517697
10 *30:8 0.000446397
11 *212:A1 *212:A2 9.83388e-05
12 *212:A1 *32:12 9.46929e-05
13 *213:B *213:C 5.49489e-05
14 *213:B *222:A 1.3701e-05
15 *213:B *223:A2 3.93247e-05
16 *235:A *238:B 1.69961e-05
17 *235:A *245:A2 1.33343e-05
18 *235:A *245:C1 5.71472e-05
19 *235:A *56:10 6.87574e-05
20 *236:A *236:C 0
21 *236:A *237:B1 7.35585e-06
22 *236:A *245:A2 5.47047e-05
23 *30:8 *200:B 6.97972e-05
24 *30:12 *213:C 3.58558e-05
25 *30:12 *244:A_N 0
26 *30:12 *32:12 7.6644e-05
27 *30:29 *213:C 6.55528e-06
28 *30:29 *237:B1 1.9774e-05
29 *30:29 *244:A_N 0
30 *30:29 *245:A1 0.000100823
31 *30:29 *32:12 9.25014e-06
32 *30:29 *53:10 0
33 *30:31 *245:A2 0.000139932
34 *21:10 *30:8 7.83587e-05
*RES
1 *210:X *30:8 18.175 
2 *30:8 *30:12 2.17857 
3 *30:12 *213:B 16.425 
4 *30:12 *30:29 9.48214 
5 *30:29 *30:31 2.17857 
6 *30:31 *236:A 20.1036 
7 *30:31 *237:A1 9.3 
8 *30:29 *235:A 11.9071 
9 *30:8 *212:A1 16.8 
*END

*D_NET *31 0.0020197
*CONN
*I *213:C I *D sky130_fd_sc_hd__nand3b_2
*I *212:A2 I *D sky130_fd_sc_hd__a21bo_1
*I *211:X O *D sky130_fd_sc_hd__a2bb2o_1
*CAP
1 *213:C 0.000232109
2 *212:A2 4.13695e-05
3 *211:X 0.000425663
4 *31:10 0.000699141
5 *213:C *53:10 0
6 *31:10 *200:B 6.2379e-05
7 *31:10 *39:8 0.000140856
8 *210:B *31:10 7.70035e-05
9 *210:C *31:10 0.000145484
10 *212:A1 *212:A2 9.83388e-05
11 *213:B *213:C 5.49489e-05
12 *30:12 *213:C 3.58558e-05
13 *30:29 *213:C 6.55528e-06
*RES
1 *211:X *31:10 21.6571 
2 *31:10 *212:A2 14.7464 
3 *31:10 *213:C 17.8357 
*END

*D_NET *32 0.00099528
*CONN
*I *222:A I *D sky130_fd_sc_hd__and3_1
*I *223:A1 I *D sky130_fd_sc_hd__a21o_1
*I *212:X O *D sky130_fd_sc_hd__a21bo_1
*CAP
1 *222:A 0.000124338
2 *223:A1 0
3 *212:X 0.000191478
4 *32:12 0.000315816
5 *222:A *223:B1 0.00014285
6 *222:A *33:17 2.65105e-05
7 *32:12 *244:A_N 0
8 *212:A1 *32:12 9.46929e-05
9 *213:B *222:A 1.3701e-05
10 *30:12 *32:12 7.6644e-05
11 *30:29 *32:12 9.25014e-06
*RES
1 *212:X *32:12 21.1036 
2 *32:12 *223:A1 9.3 
3 *32:12 *222:A 11.9071 
*END

*D_NET *33 0.00317332
*CONN
*I *222:B I *D sky130_fd_sc_hd__and3_1
*I *235:B I *D sky130_fd_sc_hd__and3_1
*I *237:A2 I *D sky130_fd_sc_hd__a21oi_1
*I *236:B I *D sky130_fd_sc_hd__nand3_1
*I *223:A2 I *D sky130_fd_sc_hd__a21o_1
*I *213:Y O *D sky130_fd_sc_hd__nand3b_2
*CAP
1 *222:B 3.58313e-05
2 *235:B 0
3 *237:A2 1.33392e-05
4 *236:B 4.75889e-05
5 *223:A2 5.03511e-05
6 *213:Y 0
7 *33:35 0.000506275
8 *33:23 0.000686838
9 *33:17 0.000550774
10 *33:4 0.000323803
11 *222:B *43:6 4.38128e-05
12 *236:B *245:A2 2.84026e-05
13 *236:B *63:6 5.45307e-05
14 *237:A2 *245:A2 4.1896e-06
15 *237:A2 *56:10 3.41517e-06
16 *33:17 *223:B1 3.48705e-05
17 *33:17 *43:6 9.80173e-05
18 *33:23 *224:A_N 2.8266e-06
19 *33:23 *235:C 7.6644e-05
20 *33:23 *240:B 0
21 *33:23 *244:A_N 0.000198691
22 *33:23 *245:A1 0
23 *33:23 *42:21 6.07532e-05
24 *33:35 *238:B 0.000102197
25 *33:35 *245:A2 5.2027e-05
26 *33:35 *56:10 7.77751e-05
27 *33:35 *63:6 5.45307e-05
28 *213:B *223:A2 3.93247e-05
29 *222:A *33:17 2.65105e-05
*RES
1 *213:Y *33:4 9.3 
2 *33:4 *223:A2 10.5679 
3 *33:4 *33:17 3.83929 
4 *33:17 *33:23 13.9821 
5 *33:23 *33:35 15.4464 
6 *33:35 *236:B 10.675 
7 *33:35 *237:A2 9.72857 
8 *33:23 *235:B 9.3 
9 *33:17 *222:B 9.83571 
*END

*D_NET *34 0.00213718
*CONN
*I *216:A I *D sky130_fd_sc_hd__or3b_1
*I *242:A1 I *D sky130_fd_sc_hd__a21oi_1
*I *232:A I *D sky130_fd_sc_hd__xnor2_1
*I *219:A1 I *D sky130_fd_sc_hd__o21bai_2
*I *214:X O *D sky130_fd_sc_hd__and4_1
*CAP
1 *216:A 6.07442e-05
2 *242:A1 6.06602e-05
3 *232:A 7.298e-05
4 *219:A1 0
5 *214:X 0.000132664
6 *34:23 0.00024581
7 *34:12 0.000211021
8 *34:6 0.00029226
9 *216:A *214:B 1.74352e-05
10 *216:A *35:10 2.89114e-05
11 *232:A *232:B 9.60875e-05
12 *242:A1 *232:B 6.72253e-05
13 *242:A1 *242:A2 2.08464e-05
14 *242:A1 *37:6 3.18676e-05
15 *242:A1 *51:10 0.00010096
16 *34:6 *214:B 1.56e-05
17 *34:6 *214:D 7.77652e-05
18 *34:12 *202:B 3.34295e-05
19 *34:12 *219:A2 6.17134e-05
20 *34:12 *35:10 0
21 *34:12 *79:10 0.000148189
22 *34:23 *219:A2 4.1331e-06
23 *34:23 *60:10 0
24 *34:23 *79:10 0.000215049
25 *34:23 *80:29 0
26 *216:C_N *216:A 0.00014183
*RES
1 *214:X *34:6 11.8893 
2 *34:6 *34:12 7.17857 
3 *34:12 *219:A1 13.8 
4 *34:12 *34:23 7.35714 
5 *34:23 *232:A 10.6571 
6 *34:23 *242:A1 11.6393 
7 *34:6 *216:A 11.0679 
*END

*D_NET *35 0.000998863
*CONN
*I *216:B I *D sky130_fd_sc_hd__or3b_1
*I *219:A2 I *D sky130_fd_sc_hd__o21bai_2
*I *215:Y O *D sky130_fd_sc_hd__nand2_1
*CAP
1 *216:B 0
2 *219:A2 0.000148301
3 *215:Y 0.000161218
4 *35:10 0.000309519
5 *219:A2 *202:B 0
6 *219:A2 *214:A 1.41706e-05
7 *219:A2 *80:29 3.17163e-05
8 *35:10 *208:B 0
9 *35:10 *214:B 1.02936e-05
10 *35:10 *215:A 3.18676e-05
11 *35:10 *36:26 9.90431e-05
12 *216:A *35:10 2.89114e-05
13 *216:C_N *35:10 9.79767e-05
14 *219:B1_N *219:A2 0
15 *20:12 *219:A2 0
16 *34:12 *219:A2 6.17134e-05
17 *34:12 *35:10 0
18 *34:23 *219:A2 4.1331e-06
*RES
1 *215:Y *35:10 12.7464 
2 *35:10 *219:A2 21.4607 
3 *35:10 *216:B 9.3 
*END

*D_NET *36 0.0050721
*CONN
*I *225:A1 I *D sky130_fd_sc_hd__a21o_1
*I *221:B1_N I *D sky130_fd_sc_hd__a21bo_1
*I *220:A I *D sky130_fd_sc_hd__nand3_1
*I *216:X O *D sky130_fd_sc_hd__or3b_1
*CAP
1 *225:A1 3.8923e-05
2 *221:B1_N 0
3 *220:A 0
4 *216:X 0.000821912
5 *36:41 0.000181754
6 *36:26 0.000964743
7 *225:A1 *221:A1 0
8 *225:A1 *225:A2 5.52302e-05
9 *225:A1 *225:B1 0.000106376
10 *36:26 *204:A1 0.000457554
11 *36:26 *208:B 0.000358971
12 *36:26 *215:A 1.21289e-05
13 *36:26 *220:C 4.33041e-05
14 *36:26 *39:8 0.000715471
15 *36:26 *66:42 7.90803e-05
16 *36:26 *74:10 0
17 *36:26 *77:47 5.74562e-05
18 *36:41 *220:B 9.0143e-05
19 *36:41 *220:C 8.64516e-06
20 *36:41 *225:A2 0.000140933
21 *36:41 *225:B1 5.33005e-05
22 *36:41 *38:15 9.71197e-05
23 *36:41 *39:14 7.83462e-05
24 *36:41 *40:10 6.8646e-06
25 *199:A_N *36:26 5.52238e-05
26 *211:A1_N *36:26 4.82865e-05
27 *226:A1 *36:26 0.000140393
28 *226:B1 *36:41 0
29 *20:12 *36:26 0.000360894
30 *35:10 *36:26 9.90431e-05
*RES
1 *216:X *36:26 41.6036 
2 *36:26 *220:A 9.3 
3 *36:26 *36:41 13.0893 
4 *36:41 *221:B1_N 9.3 
5 *36:41 *225:A1 10.675 
*END

*D_NET *37 0.00142685
*CONN
*I *218:A_N I *D sky130_fd_sc_hd__and3b_1
*I *242:A2 I *D sky130_fd_sc_hd__a21oi_1
*I *232:B I *D sky130_fd_sc_hd__xnor2_1
*I *217:X O *D sky130_fd_sc_hd__and4_1
*CAP
1 *218:A_N 0.000101002
2 *242:A2 1.7586e-05
3 *232:B 8.30621e-05
4 *217:X 0
5 *37:6 0.000266392
6 *37:4 0.000266745
7 *218:A_N *209:B 2.44318e-05
8 *218:A_N *217:A 5.71472e-05
9 *218:A_N *217:B 0.000144773
10 *218:A_N *75:36 4.01768e-05
11 *218:A_N *75:45 1.21289e-05
12 *37:6 *242:B1 0.000126639
13 *37:6 *60:10 5.33005e-05
14 *37:6 *75:36 1.74352e-05
15 *232:A *232:B 9.60875e-05
16 *242:A1 *232:B 6.72253e-05
17 *242:A1 *242:A2 2.08464e-05
18 *242:A1 *37:6 3.18676e-05
*RES
1 *217:X *37:4 9.3 
2 *37:4 *37:6 3.82143 
3 *37:6 *232:B 11.0679 
4 *37:6 *242:A2 9.72857 
5 *37:4 *218:A_N 12.3 
*END

*D_NET *38 0.00336076
*CONN
*I *225:B1 I *D sky130_fd_sc_hd__a21o_1
*I *220:B I *D sky130_fd_sc_hd__nand3_1
*I *221:A1 I *D sky130_fd_sc_hd__a21bo_1
*I *218:X O *D sky130_fd_sc_hd__and3b_1
*CAP
1 *225:B1 0.000150851
2 *220:B 0.000134528
3 *221:A1 1.99857e-05
4 *218:X 0.00062152
5 *38:15 0.000354426
6 *38:6 0.000710554
7 *220:B *220:C 2.89016e-05
8 *220:B *40:10 0.000101545
9 *221:A1 *225:A2 1.04232e-05
10 *38:6 *201:B 1.74352e-05
11 *38:6 *209:B 2.28598e-05
12 *38:6 *225:A2 2.89114e-05
13 *38:6 *75:60 2.75452e-05
14 *38:6 *78:63 4.17433e-05
15 *38:6 *78:65 5.65955e-05
16 *38:15 *225:A2 2.28499e-05
17 *210:D_N *38:6 8.36572e-05
18 *225:A1 *221:A1 0
19 *225:A1 *225:B1 0.000106376
20 *22:10 *38:6 0.000224583
21 *29:6 *38:6 0.000354901
22 *36:41 *220:B 9.0143e-05
23 *36:41 *225:B1 5.33005e-05
24 *36:41 *38:15 9.71197e-05
*RES
1 *218:X *38:6 20.925 
2 *38:6 *221:A1 9.72857 
3 *38:6 *38:15 1.35714 
4 *38:15 *220:B 21.0857 
5 *38:15 *225:B1 12.2107 
*END

*D_NET *39 0.00432622
*CONN
*I *220:C I *D sky130_fd_sc_hd__nand3_1
*I *225:A2 I *D sky130_fd_sc_hd__a21o_1
*I *221:A2 I *D sky130_fd_sc_hd__a21bo_1
*I *219:Y O *D sky130_fd_sc_hd__o21bai_2
*CAP
1 *220:C 0.000153853
2 *225:A2 0.000138243
3 *221:A2 0
4 *219:Y 0.000975521
5 *39:14 0.000217227
6 *39:8 0.00120836
7 *220:C *40:10 5.52302e-05
8 *39:8 *46:10 0.00010096
9 *39:8 *80:50 3.47689e-05
10 *39:14 *201:A 0
11 *39:14 *46:10 4.25809e-05
12 *211:A1_N *39:8 9.66977e-05
13 *219:B1_N *39:8 2.89114e-05
14 *220:B *220:C 2.89016e-05
15 *221:A1 *225:A2 1.04232e-05
16 *225:A1 *225:A2 5.52302e-05
17 *31:10 *39:8 0.000140856
18 *36:26 *220:C 4.33041e-05
19 *36:26 *39:8 0.000715471
20 *36:41 *220:C 8.64516e-06
21 *36:41 *225:A2 0.000140933
22 *36:41 *39:14 7.83462e-05
23 *38:6 *225:A2 2.89114e-05
24 *38:15 *225:A2 2.28499e-05
*RES
1 *219:Y *39:8 28.3357 
2 *39:8 *39:14 10.9464 
3 *39:14 *221:A2 9.3 
4 *39:14 *225:A2 12.3179 
5 *39:8 *220:C 12.2107 
*END

*D_NET *40 0.00188745
*CONN
*I *249:A1 I *D sky130_fd_sc_hd__a21oi_1
*I *244:D I *D sky130_fd_sc_hd__and4b_1
*I *227:A I *D sky130_fd_sc_hd__and3_1
*I *220:Y O *D sky130_fd_sc_hd__nand3_1
*CAP
1 *249:A1 0.000161599
2 *244:D 0.000180546
3 *227:A 0
4 *220:Y 0.000234102
5 *40:16 0.000270922
6 *40:10 0.000486076
7 *244:D *244:C 0.000236441
8 *244:D *41:12 0
9 *244:D *45:10 0
10 *244:D *45:16 4.81157e-05
11 *249:A1 *249:B1 5.71472e-05
12 *249:A1 *45:16 4.88637e-05
13 *249:A1 *47:12 0
14 *40:10 *41:12 0
15 *40:10 *45:10 0
16 *40:10 *46:10 0
17 *40:16 *41:12 0
18 *40:16 *45:10 0
19 *220:B *40:10 0.000101545
20 *220:C *40:10 5.52302e-05
21 *36:41 *40:10 6.8646e-06
*RES
1 *220:Y *40:10 17.8 
2 *40:10 *40:16 1.5 
3 *40:16 *227:A 13.8 
4 *40:16 *244:D 18.3134 
5 *40:10 *249:A1 16.1036 
*END

*D_NET *41 0.00174185
*CONN
*I *222:C I *D sky130_fd_sc_hd__and3_1
*I *223:B1 I *D sky130_fd_sc_hd__a21o_1
*I *221:X O *D sky130_fd_sc_hd__a21bo_1
*CAP
1 *222:C 0
2 *223:B1 9.43541e-05
3 *221:X 0.000385056
4 *41:12 0.00047941
5 *223:B1 *43:6 8.22576e-05
6 *41:12 *224:A_N 7.77652e-05
7 *41:12 *244:A_N 0
8 *41:12 *244:B 0.00025263
9 *41:12 *244:C 0
10 *41:12 *245:C1 3.5707e-05
11 *41:12 *43:6 2.8806e-05
12 *41:12 *46:10 0.000128146
13 *41:12 *47:12 0
14 *222:A *223:B1 0.00014285
15 *244:D *41:12 0
16 *33:17 *223:B1 3.48705e-05
17 *40:10 *41:12 0
18 *40:16 *41:12 0
*RES
1 *221:X *41:12 27.1393 
2 *41:12 *223:B1 12.175 
3 *41:12 *222:C 9.3 
*END

*D_NET *42 0.00185374
*CONN
*I *239:B1 I *D sky130_fd_sc_hd__a21oi_1
*I *245:A1 I *D sky130_fd_sc_hd__a211o_1
*I *224:A_N I *D sky130_fd_sc_hd__and2b_1
*I *222:X O *D sky130_fd_sc_hd__and3_1
*CAP
1 *239:B1 6.41062e-05
2 *245:A1 0.000306576
3 *224:A_N 0.000100663
4 *222:X 0
5 *42:21 0.000452696
6 *42:6 0.000182677
7 *224:A_N *224:B 4.38128e-05
8 *224:A_N *239:A1 0
9 *224:A_N *244:A_N 0
10 *224:A_N *43:6 0.000186669
11 *245:A1 *235:C 0
12 *245:A1 *53:29 0.000228558
13 *42:21 *239:A1 0
14 *42:21 *240:B 4.58096e-05
15 *30:29 *245:A1 0.000100823
16 *33:23 *224:A_N 2.8266e-06
17 *33:23 *245:A1 0
18 *33:23 *42:21 6.07532e-05
19 *41:12 *224:A_N 7.77652e-05
*RES
1 *222:X *42:6 13.8 
2 *42:6 *224:A_N 16.7107 
3 *42:6 *42:21 6.75 
4 *42:21 *245:A1 24.0679 
5 *42:21 *239:B1 10.2464 
*END

*D_NET *43 0.00130898
*CONN
*I *224:B I *D sky130_fd_sc_hd__and2b_1
*I *239:A1 I *D sky130_fd_sc_hd__a21oi_1
*I *223:X O *D sky130_fd_sc_hd__a21o_1
*CAP
1 *224:B 0.000113097
2 *239:A1 8.43795e-05
3 *223:X 0.000150467
4 *43:6 0.000347944
5 *239:A1 *240:B 3.40128e-05
6 *239:A1 *245:C1 9.57064e-05
7 *222:B *43:6 4.38128e-05
8 *223:B1 *43:6 8.22576e-05
9 *224:A_N *224:B 4.38128e-05
10 *224:A_N *239:A1 0
11 *224:A_N *43:6 0.000186669
12 *33:17 *43:6 9.80173e-05
13 *41:12 *43:6 2.8806e-05
14 *42:21 *239:A1 0
*RES
1 *223:X *43:6 13.1214 
2 *43:6 *239:A1 20.55 
3 *43:6 *224:B 11.0679 
*END

*D_NET *44 0.000271723
*CONN
*I *228:A I *D sky130_fd_sc_hd__xor2_1
*I *224:X O *D sky130_fd_sc_hd__and2b_1
*CAP
1 *228:A 0.000135861
2 *224:X 0.000135861
*RES
1 *224:X *228:A 20.7964 
*END

*D_NET *45 0.00156672
*CONN
*I *249:A2 I *D sky130_fd_sc_hd__a21oi_1
*I *244:C I *D sky130_fd_sc_hd__and4b_1
*I *227:B I *D sky130_fd_sc_hd__and3_1
*I *225:X O *D sky130_fd_sc_hd__a21o_1
*CAP
1 *249:A2 0
2 *244:C 0.000218069
3 *227:B 0
4 *225:X 9.55099e-05
5 *45:16 0.000331445
6 *45:10 0.000208886
7 *244:C *47:12 7.55623e-05
8 *45:10 *250:A 9.25014e-06
9 *45:16 *249:B1 0.000118978
10 *45:16 *250:A 1.74352e-05
11 *45:16 *250:B 0.00014285
12 *45:16 *46:14 9.50968e-06
13 *45:16 *47:12 5.80706e-06
14 *244:D *244:C 0.000236441
15 *244:D *45:10 0
16 *244:D *45:16 4.81157e-05
17 *249:A1 *45:16 4.88637e-05
18 *40:10 *45:10 0
19 *40:16 *45:10 0
20 *41:12 *244:C 0
*RES
1 *225:X *45:10 19.9429 
2 *45:10 *45:16 8.125 
3 *45:16 *227:B 13.8 
4 *45:16 *244:C 18.7464 
5 *45:10 *249:A2 9.3 
*END

*D_NET *46 0.00216079
*CONN
*I *244:B I *D sky130_fd_sc_hd__and4b_1
*I *249:B1 I *D sky130_fd_sc_hd__a21oi_1
*I *227:C I *D sky130_fd_sc_hd__and3_1
*I *226:X O *D sky130_fd_sc_hd__a21o_1
*CAP
1 *244:B 0.000108891
2 *249:B1 7.30788e-05
3 *227:C 0
4 *226:X 0.000225975
5 *46:14 0.000390553
6 *46:10 0.00065234
7 *46:10 *201:A 0
8 *249:A1 *249:B1 5.71472e-05
9 *21:10 *46:10 0
10 *39:8 *46:10 0.00010096
11 *39:14 *46:10 4.25809e-05
12 *40:10 *46:10 0
13 *41:12 *244:B 0.00025263
14 *41:12 *46:10 0.000128146
15 *45:16 *249:B1 0.000118978
16 *45:16 *46:14 9.50968e-06
*RES
1 *226:X *46:10 18.2107 
2 *46:10 *46:14 7.98214 
3 *46:14 *227:C 9.3 
4 *46:14 *249:B1 11.1393 
5 *46:10 *244:B 16.9607 
*END

*D_NET *47 0.00186128
*CONN
*I *250:A I *D sky130_fd_sc_hd__nor2_1
*I *239:A2 I *D sky130_fd_sc_hd__a21oi_1
*I *228:B I *D sky130_fd_sc_hd__xor2_1
*I *227:X O *D sky130_fd_sc_hd__and3_1
*CAP
1 *250:A 0.000218106
2 *239:A2 0.000359163
3 *228:B 0
4 *227:X 0
5 *47:12 0.000605176
6 *47:4 0.000464119
7 *239:A2 *245:C1 0
8 *239:A2 *263:A 0
9 *250:A *250:B 0.000102197
10 *250:A *262:A 4.46186e-06
11 *47:12 *245:C1 0
12 *47:12 *262:A 0
13 *244:C *47:12 7.55623e-05
14 *249:A1 *47:12 0
15 *41:12 *47:12 0
16 *45:10 *250:A 9.25014e-06
17 *45:16 *250:A 1.74352e-05
18 *45:16 *47:12 5.80706e-06
*RES
1 *227:X *47:4 9.3 
2 *47:4 *47:12 9.53571 
3 *47:12 *228:B 13.8 