*SPEF "ieee 1481-1999"
*DESIGN "mult4_SarsaNStepsRuido_e9_SarsaNStepsRuido_e9_SARSA_RUIDO_e9_SARSA_RUIDO_e9"
*DATE "12:01:14 Wednesday September 17, 2025"
*VENDOR "The OpenROAD Project"
*PROGRAM "OpenROAD"
*VERSION "edf00dff99f6c40d67a30c0e22a8191c5d2ed9d6"
*DESIGN_FLOW "NAME_SCOPE LOCAL" "PIN_CAP NONE"
*DIVIDER /
*DELIMITER :
*BUS_DELIMITER []
*T_UNIT 1 NS
*C_UNIT 1 PF
*R_UNIT 1 OHM
*L_UNIT 1 HENRY

*NAME_MAP
*1 A[0]
*2 A[1]
*3 A[2]
*4 A[3]
*5 B[0]
*6 B[1]
*7 B[2]
*8 B[3]
*9 net16
*10 P[1]
*11 P[2]
*12 P[3]
*13 P[4]
*14 P[5]
*15 P[6]
*16 P[7]
*19 _000_
*20 _001_
*21 _002_
*22 _003_
*23 _004_
*24 _005_
*25 _006_
*26 _007_
*27 _008_
*28 _009_
*29 _010_
*30 _011_
*31 _012_
*32 _013_
*33 _014_
*34 _015_
*35 _016_
*36 _017_
*37 _018_
*38 _019_
*39 _020_
*40 _021_
*41 _022_
*42 _023_
*43 _024_
*44 _025_
*45 _026_
*46 _027_
*47 _028_
*48 _029_
*49 _030_
*50 _031_
*51 _032_
*52 _033_
*53 _034_
*54 _035_
*55 _036_
*56 _037_
*57 _038_
*58 _039_
*59 _040_
*60 _041_
*61 _042_
*62 _043_
*63 _044_
*64 _045_
*65 _046_
*66 _047_
*67 _048_
*68 _049_
*69 _050_
*70 _051_
*71 _052_
*72 net1
*73 net10
*74 net11
*75 net12
*76 net13
*77 net14
*78 net15
*79 net2
*80 net3
*81 net4
*82 net5
*83 net6
*84 net7
*85 net8
*86 net9
*87 FILLER_0_22
*88 FILLER_0_29
*89 FILLER_0_3
*90 FILLER_0_34
*91 FILLER_0_42
*92 FILLER_0_54
*93 FILLER_0_63
*94 FILLER_0_75
*95 FILLER_1_21
*96 FILLER_1_34
*97 FILLER_1_48
*98 FILLER_1_64
*99 FILLER_1_69
*100 FILLER_2_19
*101 FILLER_2_27
*102 FILLER_2_29
*103 FILLER_2_35
*104 FILLER_2_47
*105 FILLER_2_56
*106 FILLER_3_11
*107 FILLER_3_17
*108 FILLER_3_23
*109 FILLER_3_3
*110 FILLER_3_40
*111 FILLER_3_52
*112 FILLER_3_57
*113 FILLER_3_69
*114 FILLER_3_77
*115 FILLER_4_19
*116 FILLER_4_27
*117 FILLER_4_29
*118 FILLER_4_41
*119 FILLER_4_45
*120 FILLER_4_65
*121 FILLER_4_73
*122 FILLER_5_14
*123 FILLER_5_41
*124 FILLER_5_53
*125 FILLER_5_57
*126 FILLER_5_63
*127 FILLER_5_76
*128 FILLER_6_22
*129 FILLER_6_41
*130 FILLER_6_54
*131 FILLER_6_63
*132 FILLER_6_70
*133 FILLER_6_78
*134 FILLER_7_18
*135 FILLER_7_26
*136 FILLER_7_3
*137 FILLER_7_38
*138 FILLER_7_50
*139 FILLER_7_63
*140 FILLER_7_67
*141 FILLER_7_75
*142 FILLER_7_9
*143 FILLER_8_14
*144 FILLER_8_26
*145 FILLER_8_29
*146 FILLER_8_3
*147 FILLER_8_45
*148 FILLER_8_51
*149 FILLER_8_59
*150 FILLER_8_73
*151 FILLER_9_19
*152 FILLER_9_27
*153 FILLER_9_29
*154 FILLER_9_33
*155 FILLER_9_41
*156 FILLER_9_49
*157 FILLER_9_55
*158 FILLER_9_57
*159 FILLER_9_69
*160 FILLER_9_7
*161 FILLER_9_73
*162 PHY_EDGE_ROW_0_Left_10
*163 PHY_EDGE_ROW_0_Right_0
*164 PHY_EDGE_ROW_1_Left_11
*165 PHY_EDGE_ROW_1_Right_1
*166 PHY_EDGE_ROW_2_Left_12
*167 PHY_EDGE_ROW_2_Right_2
*168 PHY_EDGE_ROW_3_Left_13
*169 PHY_EDGE_ROW_3_Right_3
*170 PHY_EDGE_ROW_4_Left_14
*171 PHY_EDGE_ROW_4_Right_4
*172 PHY_EDGE_ROW_5_Left_15
*173 PHY_EDGE_ROW_5_Right_5
*174 PHY_EDGE_ROW_6_Left_16
*175 PHY_EDGE_ROW_6_Right_6
*176 PHY_EDGE_ROW_7_Left_17
*177 PHY_EDGE_ROW_7_Right_7
*178 PHY_EDGE_ROW_8_Left_18
*179 PHY_EDGE_ROW_8_Right_8
*180 PHY_EDGE_ROW_9_Left_19
*181 PHY_EDGE_ROW_9_Right_9
*182 TAP_TAPCELL_ROW_0_20
*183 TAP_TAPCELL_ROW_0_21
*184 TAP_TAPCELL_ROW_1_22
*185 TAP_TAPCELL_ROW_2_23
*186 TAP_TAPCELL_ROW_3_24
*187 TAP_TAPCELL_ROW_4_25
*188 TAP_TAPCELL_ROW_5_26
*189 TAP_TAPCELL_ROW_6_27
*190 TAP_TAPCELL_ROW_7_28
*191 TAP_TAPCELL_ROW_8_29
*192 TAP_TAPCELL_ROW_9_30
*193 TAP_TAPCELL_ROW_9_31
*194 _053_
*195 _054_
*196 _055_
*197 _056_
*198 _057_
*199 _058_
*200 _059_
*201 _060_
*202 _061_
*203 _062_
*204 _063_
*205 _064_
*206 _065_
*207 _066_
*208 _067_
*209 _068_
*210 _069_
*211 _070_
*212 _071_
*213 _072_
*214 _073_
*215 _074_
*216 _075_
*217 _076_
*218 _077_
*219 _078_
*220 _079_
*221 _080_
*222 _081_
*223 _082_
*224 _083_
*225 _084_
*226 _085_
*227 _086_
*228 _087_
*229 _088_
*230 _089_
*231 _090_
*232 _091_
*233 _092_
*234 _093_
*235 _094_
*236 _095_
*237 _096_
*238 _097_
*239 _098_
*240 _099_
*241 _100_
*242 _101_
*243 _102_
*244 _103_
*245 _104_
*246 _105_
*247 _106_
*248 _107_
*249 _108_
*250 _109_
*251 _110_
*252 _111_
*253 _112_
*254 input1
*255 input2
*256 input3
*257 input4
*258 input5
*259 input6
*260 input7
*261 input8
*262 mult4_SarsaNStepsRuido_e9_SarsaNStepsRuido_e9_SARSA_RUIDO_e9_SARSA_RUIDO_e9_16
*263 output10
*264 output11
*265 output12
*266 output13
*267 output14
*268 output15
*269 output9

*PORTS
A[0] I
A[1] I
A[2] I
A[3] I
B[0] I
B[1] I
B[2] I
B[3] I
P[0] O
P[1] O
P[2] O
P[3] O
P[4] O
P[5] O
P[6] O
P[7] O

*D_NET *1 0.000489426
*CONN
*P A[0] I
*I *254:A I *D sky130_fd_sc_hd__dlymetal6s2s_1
*CAP
1 A[0] 0.000217634
2 *254:A 0.000217634
3 *254:A P[1] 2.85068e-05
4 *254:A P[2] 0
5 *254:A *72:8 2.56523e-05
*RES
1 A[0] *254:A 5.35677 
*END

*D_NET *2 0.000686959
*CONN
*P A[1] I
*I *255:A I *D sky130_fd_sc_hd__clkbuf_2
*CAP
1 A[1] 0.000315161
2 *255:A 0.000315161
3 *255:A P[1] 2.96366e-05
4 *255:A *258:A 2.69997e-05
5 *255:A *79:10 0
6 *255:A *82:21 0
*RES
1 A[1] *255:A 7.9443 
*END

*D_NET *3 0.000901752
*CONN
*P A[2] I
*I *256:A I *D sky130_fd_sc_hd__clkbuf_2
*CAP
1 A[2] 0.000412261
2 *256:A 0.000412261
3 *256:A *234:A 5.30673e-05
4 *256:A *234:B 8.53113e-06
5 *256:A *257:A 0
6 *256:A *80:28 9.80032e-06
7 *256:A *80:43 5.83121e-06
*RES
1 A[2] *256:A 11.04 
*END

*D_NET *4 0.000858786
*CONN
*P A[3] I
*I *257:A I *D sky130_fd_sc_hd__clkbuf_2
*CAP
1 A[3] 0.000386095
2 *257:A 0.000386095
3 *257:A *56:6 8.65961e-05
4 *256:A *257:A 0
*RES
1 A[3] *257:A 10.44 
*END

*D_NET *5 0.000623655
*CONN
*P B[0] I
*I *258:A I *D sky130_fd_sc_hd__clkbuf_2
*CAP
1 B[0] 0.000284828
2 *258:A 0.000284828
3 *258:A *259:A 2.69997e-05
4 *255:A *258:A 2.69997e-05
*RES
1 B[0] *258:A 7.4343 
*END

*D_NET *6 0.000537984
*CONN
*P B[1] I
*I *259:A I *D sky130_fd_sc_hd__dlymetal6s2s_1
*CAP
1 B[1] 0.000255492
2 *259:A 0.000255492
3 *258:A *259:A 2.69997e-05
*RES
1 B[1] *259:A 6.8343 
*END

*D_NET *7 0.000836135
*CONN
*P B[2] I
*I *260:A I *D sky130_fd_sc_hd__clkbuf_2
*CAP
1 B[2] 0.000391508
2 *260:A 0.000391508
3 *260:A *80:54 5.05521e-05
4 *260:A *84:10 2.56752e-06
*RES
1 B[2] *260:A 10.44 
*END

*D_NET *8 0.000393173
*CONN
*P B[3] I
*I *261:A I *D sky130_fd_sc_hd__dlymetal6s2s_1
*CAP
1 B[3] 0.000153919
2 *261:A 0.000153919
3 *261:A P[7] 8.53361e-05
4 *261:A *252:A3 0
*RES
1 B[3] *261:A 4.84677 
*END

*D_NET *9 0.000645949
*CONN
*P P[0] O
*I *262:LO O *D sky130_fd_sc_hd__conb_1
*CAP
1 P[0] 0.000271949
2 *262:LO 0.000271949
3 P[0] P[4] 9.25475e-05
4 P[0] *265:A 9.50342e-06
*RES
1 *262:LO P[0] 5.58983 
*END

*D_NET *10 0.000661148
*CONN
*P P[1] O
*I *269:X O *D sky130_fd_sc_hd__buf_2
*CAP
1 P[1] 0.000301502
2 *269:X 0.000301502
3 *254:A P[1] 2.85068e-05
4 *255:A P[1] 2.96366e-05
*RES
1 *269:X P[1] 7.1793 
*END

*D_NET *11 0.000590608
*CONN
*P P[2] O
*I *263:X O *D sky130_fd_sc_hd__buf_2
*CAP
1 P[2] 0.000295304
2 *263:X 0.000295304
3 P[2] *263:A 0
4 *254:A P[2] 0
*RES
1 *263:X P[2] 5.92503 
*END

*D_NET *12 0.000894056
*CONN
*P P[3] O
*I *264:X O *D sky130_fd_sc_hd__buf_2
*CAP
1 P[3] 0.000447028
2 *264:X 0.000447028
*RES
1 *264:X P[3] 11.55 
*END

*D_NET *13 0.000605223
*CONN
*P P[4] O
*I *265:X O *D sky130_fd_sc_hd__buf_2
*CAP
1 P[4] 0.000190734
2 *265:X 0.000190734
3 P[4] P[5] 9.25475e-05
4 P[4] *265:A 3.86607e-05
5 P[0] P[4] 9.25475e-05
*RES
1 *265:X P[4] 5.92503 
*END

*D_NET *14 0.000449046
*CONN
*P P[5] O
*I *266:X O *D sky130_fd_sc_hd__buf_2
*CAP
1 P[5] 0.000178249
2 *266:X 0.000178249
3 P[5] P[6] 0
4 P[5] *244:A 0
5 P[4] P[5] 9.25475e-05
*RES
1 *266:X P[5] 4.90503 
*END

*D_NET *15 0.000533964
*CONN
*P P[6] O
*I *267:X O *D sky130_fd_sc_hd__buf_2
*CAP
1 P[6] 0.000204073
2 *267:X 0.000204073
3 P[6] P[7] 9.25475e-05
4 P[6] *267:A 3.32709e-05
5 P[5] P[6] 0
*RES
1 *267:X P[6] 5.41503 
*END

*D_NET *16 0.000601775
*CONN
*P P[7] O
*I *268:X O *D sky130_fd_sc_hd__buf_2
*CAP
1 P[7] 0.000192615
2 *268:X 0.000192615
3 P[7] *268:A 3.86607e-05
4 P[7] *68:10 0
5 P[6] P[7] 9.25475e-05
6 *261:A P[7] 8.53361e-05
*RES
1 *268:X P[7] 5.92503 
*END

*D_NET *19 0.000863762
*CONN
*I *199:A1 I *D sky130_fd_sc_hd__a21o_1
*I *196:B1 I *D sky130_fd_sc_hd__o211a_1
*I *194:Y O *D sky130_fd_sc_hd__nand3_1
*CAP
1 *199:A1 0.000130659
2 *196:B1 0.000137681
3 *194:Y 0
4 *19:4 0.00026834
5 *196:B1 *194:A 8.8266e-05
6 *196:B1 *194:B 4.17816e-05
7 *196:B1 *196:C1 4.66108e-05
8 *199:A1 *198:B 5.21046e-05
9 *199:A1 *24:23 9.83202e-05
10 *199:A1 *79:42 0
*RES
1 *194:Y *19:4 1.6 
2 *19:4 *196:B1 4.405 
3 *19:4 *199:A1 8.51 
*END

*D_NET *20 0.000654155
*CONN
*I *196:C1 I *D sky130_fd_sc_hd__o211a_1
*I *195:X O *D sky130_fd_sc_hd__a21o_1
*CAP
1 *196:C1 0.000151928
2 *195:X 0.000151928
3 *196:C1 *194:B 4.66108e-05
4 *196:C1 *205:A 4.82919e-05
5 *196:C1 *24:23 0.000112123
6 *196:C1 *79:16 3.09088e-05
7 *196:C1 *83:36 6.02202e-05
8 *196:C1 *83:47 5.53249e-06
9 *196:B1 *196:C1 4.66108e-05
*RES
1 *195:X *196:C1 10.17 
*END

*D_NET *21 0.00192049
*CONN
*I *216:A I *D sky130_fd_sc_hd__nand4_1
*I *218:B1 I *D sky130_fd_sc_hd__a31o_1
*I *199:B1 I *D sky130_fd_sc_hd__a21o_1
*I *197:X O *D sky130_fd_sc_hd__and4_1
*CAP
1 *216:A 0.000221983
2 *218:B1 2.08101e-05
3 *199:B1 1.90984e-05
4 *197:X 0.000114684
5 *21:21 0.000620917
6 *21:12 0.000511906
7 *199:B1 *199:A2 4.00541e-06
8 *216:A *216:B 4.82863e-05
9 *216:A *216:C 4.46626e-05
10 *216:A *216:D 0.000122801
11 *216:A *218:A1 4.40314e-05
12 *218:B1 *216:C 0
13 *21:12 *23:12 2.65814e-06
14 *21:12 *24:23 9.54399e-05
15 *21:12 *72:8 0
16 *21:21 *199:A2 4.92062e-05
*RES
1 *197:X *21:12 7.52 
2 *21:12 *199:B1 1.96 
3 *21:12 *21:21 5.28 
4 *21:21 *218:B1 1.96 
5 *21:21 *216:A 5.515 
*END

*D_NET *22 0.00016929
*CONN
*I *199:A2 I *D sky130_fd_sc_hd__a21o_1
*I *198:Y O *D sky130_fd_sc_hd__nand2_1
*CAP
1 *199:A2 5.80391e-05
2 *198:Y 5.80391e-05
3 *199:B1 *199:A2 4.00541e-06
4 *21:21 *199:A2 4.92062e-05
*RES
1 *198:Y *199:A2 4.355 
*END

*D_NET *23 0.000570272
*CONN
*I *201:A I *D sky130_fd_sc_hd__nand2_1
*I *202:A I *D sky130_fd_sc_hd__or2_1
*I *199:X O *D sky130_fd_sc_hd__a21o_1
*CAP
1 *201:A 5.51234e-05
2 *202:A 0
3 *199:X 0.000130249
4 *23:12 0.000185372
5 *201:A *201:B 4.82919e-05
6 *201:A *202:B 8.49205e-05
7 *23:12 *24:23 6.36578e-05
8 *21:12 *23:12 2.65814e-06
*RES
1 *199:X *23:12 7.685 
2 *23:12 *202:A 1.6 
3 *23:12 *201:A 2.74 
*END

*D_NET *24 0.00245882
*CONN
*I *201:B I *D sky130_fd_sc_hd__nand2_1
*I *202:B I *D sky130_fd_sc_hd__or2_1
*I *205:C I *D sky130_fd_sc_hd__and3_1
*I *200:Y O *D sky130_fd_sc_hd__nand2_1
*CAP
1 *201:B 7.39429e-05
2 *202:B 0.000108911
3 *205:C 1.16779e-05
4 *200:Y 0.000285152
5 *24:23 0.000515863
6 *24:10 0.000629839
7 *205:C *79:16 9.16333e-06
8 *24:10 *205:B 0
9 *24:10 *219:A2 2.82353e-05
10 *24:10 *219:B1 4.99619e-05
11 *24:10 *72:37 2.97004e-06
12 *24:10 *79:20 0
13 *24:10 *82:54 3.49631e-05
14 *24:10 *83:25 7.26611e-05
15 *24:10 *83:36 2.97004e-06
16 *24:23 *198:B 0
17 *24:23 *72:8 0
18 *24:23 *72:37 3.47837e-05
19 *24:23 *79:42 0
20 *24:23 *83:36 4.24292e-06
21 *24:23 *83:47 9.07255e-05
22 *196:C1 *24:23 0.000112123
23 *199:A1 *24:23 9.83202e-05
24 *201:A *201:B 4.82919e-05
25 *201:A *202:B 8.49205e-05
26 *21:12 *24:23 9.54399e-05
27 *23:12 *24:23 6.36578e-05
*RES
1 *200:Y *24:10 7.665 
2 *24:10 *205:C 3.765 
3 *24:10 *24:23 9.755 
4 *24:23 *202:B 3.445 
5 *24:23 *201:B 3.1 
*END

*D_NET *25 0.000406933
*CONN
*I *203:A I *D sky130_fd_sc_hd__and2_1
*I *201:Y O *D sky130_fd_sc_hd__nand2_1
*CAP
1 *203:A 0.000108298
2 *201:Y 0.000108298
3 *203:A *203:B 4.82863e-05
4 *203:A *26:10 9.54399e-05
5 *203:A *26:25 4.66108e-05
*RES
1 *201:Y *203:A 9.375 
*END

*D_NET *26 0.00251091
*CONN
*I *253:A I *D sky130_fd_sc_hd__xnor2_1
*I *227:A I *D sky130_fd_sc_hd__or3_1
*I *203:B I *D sky130_fd_sc_hd__and2_1
*I *202:X O *D sky130_fd_sc_hd__or2_1
*CAP
1 *253:A 0.000196768
2 *227:A 2.08101e-05
3 *203:B 9.60213e-05
4 *202:X 5.06588e-05
5 *26:25 0.000708607
6 *26:10 0.000637709
7 *227:A *217:A 0
8 *227:A *223:A 0
9 *253:A *223:A 2.30292e-05
10 *253:A *223:B 2.05056e-05
11 *253:A *253:B 0.000197001
12 *26:25 *217:A 1.58534e-05
13 *26:25 *223:A 5.80083e-05
14 *26:25 *226:A 4.77757e-05
15 *26:25 *227:C 4.89295e-05
16 *26:25 *253:B 8.696e-05
17 *26:25 *45:23 6.41593e-05
18 *26:25 *48:14 4.77757e-05
19 *203:A *203:B 4.82863e-05
20 *203:A *26:10 9.54399e-05
21 *203:A *26:25 4.66108e-05
*RES
1 *202:X *26:10 6.725 
2 *26:10 *203:B 3.1 
3 *26:10 *26:25 9.105 
4 *26:25 *227:A 1.96 
5 *26:25 *253:A 9.335 
*END

*D_NET *27 0.00393498
*CONN
*I *213:A I *D sky130_fd_sc_hd__xnor2_1
*I *238:A1 I *D sky130_fd_sc_hd__o21a_1
*I *239:A1 I *D sky130_fd_sc_hd__o211a_1
*I *251:A I *D sky130_fd_sc_hd__nand2_1
*I *245:C I *D sky130_fd_sc_hd__and3_1
*I *204:Y O *D sky130_fd_sc_hd__nand2_1
*CAP
1 *213:A 0.000238609
2 *238:A1 0.000148616
3 *239:A1 0
4 *251:A 0.000238825
5 *245:C 0
6 *204:Y 3.38751e-05
7 *27:44 0.000148616
8 *27:42 0.000408091
9 *27:14 0.000495599
10 *27:8 0.000460132
11 *213:A *213:B 0.000480706
12 *213:A *35:19 4.21314e-05
13 *213:A *36:6 1.91597e-05
14 *213:A *61:10 0.000119521
15 *238:A1 *238:A2 3.23663e-05
16 *238:A1 *238:B1 0.000238077
17 *238:A1 *240:B 0.000163204
18 *251:A *204:B 7.83719e-05
19 *251:A *247:B 1.67513e-05
20 *251:A *251:B 4.82919e-05
21 *251:A *252:A3 1.16578e-05
22 *251:A *67:10 9.69328e-05
23 *251:A *81:89 0
24 *251:A *84:77 4.85683e-06
25 *27:8 *85:23 4.82863e-05
26 *27:14 *204:A 3.24046e-05
27 *27:14 *204:B 0.000113255
28 *27:14 *252:A1 0
29 *27:14 *81:89 1.22762e-05
30 *27:14 *85:12 7.20437e-07
31 *27:14 *85:23 8.73389e-06
32 *27:14 *85:25 0
33 *27:14 *85:53 0
34 *27:42 *252:A1 0
35 *27:42 *35:10 0.000185411
36 *27:42 *35:19 9.50342e-06
37 *27:42 *85:53 0
*RES
1 *204:Y *27:8 4.05 
2 *27:8 *27:14 5.63375 
3 *27:14 *245:C 1.6 
4 *27:14 *251:A 9.815 
5 *27:8 *27:42 3.42 
6 *27:42 *27:44 2 
7 *27:44 *239:A1 1.6 
8 *27:44 *238:A1 5.635 
9 *27:42 *213:A 9.96 
*END

*D_NET *28 0.00276298
*CONN
*I *211:A I *D sky130_fd_sc_hd__nand2_1
*I *212:A I *D sky130_fd_sc_hd__xor2_1
*I *205:X O *D sky130_fd_sc_hd__and3_1
*CAP
1 *211:A 0.000187281
2 *212:A 0
3 *205:X 0.000630768
4 *28:18 0.000818048
5 *211:A *35:10 9.1656e-05
6 *28:18 *205:B 0.000124895
7 *28:18 *206:A 4.85494e-05
8 *28:18 *210:A1 0.00014326
9 *28:18 *210:B1 6.26708e-05
10 *28:18 *212:B 0.000160211
11 *28:18 *29:6 0.000162995
12 *28:18 *30:14 0.000130576
13 *28:18 *31:6 0.000133961
14 *28:18 *31:23 1.411e-05
15 *28:18 *72:37 9.27255e-06
16 *28:18 *79:16 4.47209e-05
*RES
1 *205:X *28:18 13.27 
2 *28:18 *212:A 1.6 
3 *28:18 *211:A 5.05 
*END

*D_NET *29 0.00125297
*CONN
*I *210:A1 I *D sky130_fd_sc_hd__a21o_1
*I *209:A1 I *D sky130_fd_sc_hd__a21oi_1
*I *206:Y O *D sky130_fd_sc_hd__nand2_1
*CAP
1 *210:A1 3.27566e-05
2 *209:A1 0.000109682
3 *206:Y 6.03045e-05
4 *29:6 0.000202743
5 *209:A1 *209:A2 0.000185398
6 *210:A1 *209:A2 8.52883e-05
7 *210:A1 *30:14 2.43747e-05
8 *29:6 *206:B 0.000163199
9 *29:6 *209:A2 4.66108e-05
10 *29:6 *72:37 2.30292e-05
11 *29:6 *85:59 1.33285e-05
12 *28:18 *210:A1 0.00014326
13 *28:18 *29:6 0.000162995
*RES
1 *206:Y *29:6 4.12 
2 *29:6 *209:A1 7.745 
3 *29:6 *210:A1 3.1 
*END

*D_NET *30 0.00298701
*CONN
*I *218:A1 I *D sky130_fd_sc_hd__a31o_1
*I *216:B I *D sky130_fd_sc_hd__nand4_1
*I *210:A2 I *D sky130_fd_sc_hd__a21o_1
*I *209:A2 I *D sky130_fd_sc_hd__a21oi_1
*I *207:Y O *D sky130_fd_sc_hd__nand3_1
*CAP
1 *218:A1 0.000203045
2 *216:B 3.38751e-05
3 *210:A2 0
4 *209:A2 0.000108272
5 *207:Y 0
6 *30:34 0.000349884
7 *30:14 0.000406004
8 *30:6 0.000410695
9 *209:A2 *208:D 2.20014e-05
10 *209:A2 *44:10 0.00013521
11 *209:A2 *85:59 4.77757e-05
12 *218:A1 *216:C 0.000202956
13 *218:A1 *41:12 0.000161984
14 *30:14 *206:B 0
15 *30:14 *84:10 7.06865e-05
16 *30:14 *84:29 0.00017688
17 *30:34 *207:C 4.54719e-05
18 *30:34 *214:B 1.67904e-05
19 *30:34 *84:29 3.09164e-05
20 *209:A1 *209:A2 0.000185398
21 *210:A1 *209:A2 8.52883e-05
22 *210:A1 *30:14 2.43747e-05
23 *216:A *216:B 4.82863e-05
24 *216:A *218:A1 4.40314e-05
25 *28:18 *30:14 0.000130576
26 *29:6 *209:A2 4.66108e-05
*RES
1 *207:Y *30:6 3.6 
2 *30:6 *30:14 7.355 
3 *30:14 *209:A2 9.14 
4 *30:14 *210:A2 1.6 
5 *30:6 *30:34 2.145 
6 *30:34 *216:B 4.05 
7 *30:34 *218:A1 8.055 
*END

*D_NET *31 0.00191466
*CONN
*I *209:B1 I *D sky130_fd_sc_hd__a21oi_1
*I *236:A I *D sky130_fd_sc_hd__xnor2_1
*I *235:A I *D sky130_fd_sc_hd__nand2_1
*I *210:B1 I *D sky130_fd_sc_hd__a21o_1
*I *208:X O *D sky130_fd_sc_hd__and4_1
*CAP
1 *209:B1 0
2 *236:A 7.95331e-05
3 *235:A 0.00018678
4 *210:B1 3.64055e-05
5 *208:X 0.000115179
6 *31:31 0.000421931
7 *31:23 0.000364158
8 *31:6 0.000360124
9 *235:A *236:B 0
10 *31:23 *211:B 4.83766e-05
11 *31:23 *84:10 8.78735e-05
12 *31:31 *211:B 3.55642e-06
13 *28:18 *210:B1 6.26708e-05
14 *28:18 *31:6 0.000133961
15 *28:18 *31:23 1.411e-05
*RES
1 *208:X *31:6 3.085 
2 *31:6 *210:B1 2.47 
3 *31:6 *31:23 7.825 
4 *31:23 *31:31 4.535 
5 *31:31 *235:A 6.555 
6 *31:31 *236:A 4.74 
7 *31:23 *209:B1 1.6 
*END

*D_NET *32 0.00136926
*CONN
*I *211:B I *D sky130_fd_sc_hd__nand2_1
*I *209:Y O *D sky130_fd_sc_hd__a21oi_1
*CAP
1 *211:B 0.000520255
2 *209:Y 0.000520255
3 *211:B *59:12 0.000137571
4 *211:B *85:53 0.000139245
5 *31:23 *211:B 4.83766e-05
6 *31:31 *211:B 3.55642e-06
*RES
1 *209:Y *211:B 14.115 
*END

*D_NET *33 0.000297183
*CONN
*I *212:B I *D sky130_fd_sc_hd__xor2_1
*I *210:X O *D sky130_fd_sc_hd__a21o_1
*CAP
1 *212:B 6.84859e-05
2 *210:X 6.84859e-05
3 *28:18 *212:B 0.000160211
*RES
1 *210:X *212:B 4.685 
*END

*D_NET *34 0.00113523
*CONN
*I *238:B1 I *D sky130_fd_sc_hd__o21a_1
*I *239:C1 I *D sky130_fd_sc_hd__o211a_1
*I *211:Y O *D sky130_fd_sc_hd__nand2_1
*CAP
1 *238:B1 0.000137917
2 *239:C1 0
3 *211:Y 4.90925e-05
4 *34:10 0.00018701
5 *238:B1 *238:A2 0.000275548
6 *238:B1 *240:B 8.05167e-05
7 *34:10 *239:B1 2.7881e-05
8 *34:10 *35:10 2.37234e-05
9 *34:10 *85:53 0.000115464
10 *238:A1 *238:B1 0.000238077
*RES
1 *211:Y *34:10 6.98 
2 *34:10 *239:C1 1.6 
3 *34:10 *238:B1 5.875 
*END

*D_NET *35 0.00250195
*CONN
*I *213:B I *D sky130_fd_sc_hd__xnor2_1
*I *238:A2 I *D sky130_fd_sc_hd__o21a_1
*I *239:A2 I *D sky130_fd_sc_hd__o211a_1
*I *212:X O *D sky130_fd_sc_hd__xor2_1
*CAP
1 *213:B 0.000225267
2 *238:A2 0.00016909
3 *239:A2 0
4 *212:X 0.0002103
5 *35:19 0.000420189
6 *35:10 0.000236132
7 *213:B *36:6 4.82863e-05
8 *213:B *62:14 0
9 *35:10 *239:B1 5.16418e-05
10 *35:10 *85:53 0
11 *35:19 *85:53 0
12 *211:A *35:10 9.1656e-05
13 *213:A *213:B 0.000480706
14 *213:A *35:19 4.21314e-05
15 *238:A1 *238:A2 3.23663e-05
16 *238:B1 *238:A2 0.000275548
17 *27:42 *35:10 0.000185411
18 *27:42 *35:19 9.50342e-06
19 *34:10 *35:10 2.37234e-05
*RES
1 *212:X *35:10 7.92 
2 *35:10 *239:A2 3.6 
3 *35:10 *35:19 0.615 
4 *35:19 *238:A2 6.81 
5 *35:19 *213:B 9.015 
*END

*D_NET *36 0.00167824
*CONN
*I *229:A I *D sky130_fd_sc_hd__or2_1
*I *224:A I *D sky130_fd_sc_hd__xnor2_1
*I *242:B1 I *D sky130_fd_sc_hd__a21o_1
*I *243:A I *D sky130_fd_sc_hd__or3_1
*I *213:Y O *D sky130_fd_sc_hd__xnor2_1
*CAP
1 *229:A 4.3931e-05
2 *224:A 9.86779e-05
3 *242:B1 0
4 *243:A 2.08101e-05
5 *213:Y 0.000142777
6 *36:28 0.000221944
7 *36:19 0.000191321
8 *36:6 0.000275574
9 *224:A *46:17 0.000173978
10 *224:A *50:6 4.60584e-05
11 *224:A *50:10 0.000124007
12 *229:A *228:A 4.99619e-05
13 *229:A *228:B 3.00381e-05
14 *36:6 *241:A_N 1.83847e-05
15 *36:19 *241:A_N 1.61831e-05
16 *36:19 *243:B 8.08439e-05
17 *36:19 *52:12 0
18 *36:28 *243:B 2.68721e-05
19 *36:28 *46:17 4.94326e-05
20 *36:28 *52:12 0
21 *213:A *36:6 1.91597e-05
22 *213:B *36:6 4.82863e-05
*RES
1 *213:Y *36:6 3.775 
2 *36:6 *243:A 1.96 
3 *36:6 *36:19 4.34 
4 *36:19 *242:B1 3.6 
5 *36:19 *36:28 1.635 
6 *36:28 *224:A 6.24 
7 *36:28 *229:A 4.5 
*END

*D_NET *37 0.000819112
*CONN
*I *216:C I *D sky130_fd_sc_hd__nand4_1
*I *218:A2 I *D sky130_fd_sc_hd__a31o_1
*I *214:X O *D sky130_fd_sc_hd__or2_1
*CAP
1 *216:C 5.50683e-05
2 *218:A2 0
3 *214:X 6.82539e-05
4 *37:10 0.000123322
5 *216:C *216:D 0.000122801
6 *37:10 *38:12 0.000112284
7 *37:10 *44:10 8.97642e-05
8 *216:A *216:C 4.46626e-05
9 *218:A1 *216:C 0.000202956
10 *218:B1 *216:C 0
*RES
1 *214:X *37:10 7.49 
2 *37:10 *218:A2 1.6 
3 *37:10 *216:C 3.79 
*END

*D_NET *38 0.00071414
*CONN
*I *216:D I *D sky130_fd_sc_hd__nand4_1
*I *218:A3 I *D sky130_fd_sc_hd__a31o_1
*I *215:X O *D sky130_fd_sc_hd__a21o_1
*CAP
1 *216:D 2.09178e-05
2 *218:A3 0
3 *215:X 0.000129164
4 *38:12 0.000150082
5 *38:12 *207:B 5.609e-05
6 *216:A *216:D 0.000122801
7 *216:C *216:D 0.000122801
8 *37:10 *38:12 0.000112284
*RES
1 *215:X *38:12 7.775 
2 *38:12 *218:A3 1.6 
3 *38:12 *216:D 2.74 
*END

*D_NET *39 0.00190094
*CONN
*I *217:A I *D sky130_fd_sc_hd__inv_2
*I *225:A1 I *D sky130_fd_sc_hd__a21oi_1
*I *222:A I *D sky130_fd_sc_hd__and3_1
*I *216:Y O *D sky130_fd_sc_hd__nand4_1
*CAP
1 *217:A 0.000323973
2 *225:A1 0
3 *222:A 0.000143677
4 *216:Y 0.000136574
5 *39:12 0.000222082
6 *39:8 0.000538951
7 *217:A *223:A 0.000270098
8 *222:A *222:C 5.49535e-05
9 *222:A *225:A2 3.04704e-05
10 *222:A *225:B1 0.000135212
11 *222:A *48:14 1.38634e-05
12 *39:8 *41:12 0
13 *39:8 *44:10 0
14 *39:12 *225:A2 1.52352e-05
15 *227:A *217:A 0
16 *26:25 *217:A 1.58534e-05
*RES
1 *216:Y *39:8 5.49 
2 *39:8 *39:12 3.14 
3 *39:12 *222:A 4.945 
4 *39:12 *225:A1 1.6 
5 *39:8 *217:A 8.205 
*END

*D_NET *40 0.000814402
*CONN
*I *223:A I *D sky130_fd_sc_hd__nor2_1
*I *217:Y O *D sky130_fd_sc_hd__inv_2
*CAP
1 *223:A 0.000122999
2 *217:Y 0.000122999
3 *223:A *223:B 3.56279e-05
4 *223:A *226:A 4.77757e-05
5 *223:A *227:C 3.75126e-05
6 *223:A *48:14 4.77757e-05
7 *223:A *50:6 4.85763e-05
8 *217:A *223:A 0.000270098
9 *227:A *223:A 0
10 *253:A *223:A 2.30292e-05
11 *26:25 *223:A 5.80083e-05
*RES
1 *217:Y *223:A 7.115 
*END

*D_NET *41 0.00106394
*CONN
*I *225:A2 I *D sky130_fd_sc_hd__a21oi_1
*I *222:B I *D sky130_fd_sc_hd__and3_1
*I *218:X O *D sky130_fd_sc_hd__a31o_1
*CAP
1 *225:A2 0.00017549
2 *222:B 0
3 *218:X 0.000147384
4 *41:12 0.000322873
5 *225:A2 *225:B1 0.000136476
6 *41:12 *44:10 7.4027e-05
7 *218:A1 *41:12 0.000161984
8 *222:A *225:A2 3.04704e-05
9 *39:8 *41:12 0
10 *39:12 *225:A2 1.52352e-05
*RES
1 *218:X *41:12 7.955 
2 *41:12 *222:B 1.6 
3 *41:12 *225:A2 4.75 
*END

*D_NET *42 0.000133082
*CONN
*I *221:A I *D sky130_fd_sc_hd__nor2_1
*I *219:Y O *D sky130_fd_sc_hd__a22oi_1
*CAP
1 *221:A 2.77117e-05
2 *219:Y 2.77117e-05
3 *221:A *219:B1 7.06495e-05
4 *221:A *219:B2 7.00889e-06
*RES
1 *219:Y *221:A 4.01 
*END

*D_NET *43 0.000389295
*CONN
*I *221:B I *D sky130_fd_sc_hd__nor2_1
*I *220:X O *D sky130_fd_sc_hd__o211a_1
*CAP
1 *221:B 0.000105248
2 *220:X 0.000105248
3 *221:B *219:B1 4.82863e-05
4 *221:B *44:10 1.19928e-05
5 *221:B *81:32 0.00011852
*RES
1 *220:X *221:B 9.375 
*END

*D_NET *44 0.00298442
*CONN
*I *222:C I *D sky130_fd_sc_hd__and3_1
*I *225:B1 I *D sky130_fd_sc_hd__a21oi_1
*I *221:Y O *D sky130_fd_sc_hd__nor2_1
*CAP
1 *222:C 8.60101e-05
2 *225:B1 5.2262e-05
3 *221:Y 0.000842039
4 *44:10 0.000980311
5 *44:10 *198:A 0
6 *44:10 *214:A 7.88262e-05
7 *44:10 *219:B1 2.75145e-05
8 *44:10 *72:52 0.000187409
9 *44:10 *85:59 9.24127e-05
10 *209:A2 *44:10 0.00013521
11 *221:B *44:10 1.19928e-05
12 *222:A *222:C 5.49535e-05
13 *222:A *225:B1 0.000135212
14 *225:A2 *225:B1 0.000136476
15 *37:10 *44:10 8.97642e-05
16 *39:8 *44:10 0
17 *41:12 *44:10 7.4027e-05
*RES
1 *221:Y *44:10 17.385 
2 *44:10 *225:B1 5.445 
3 *44:10 *222:C 4.725 
*END

*D_NET *45 0.00144393
*CONN
*I *223:B I *D sky130_fd_sc_hd__nor2_1
*I *227:B I *D sky130_fd_sc_hd__or3_1
*I *226:A I *D sky130_fd_sc_hd__nor2_1
*I *222:X O *D sky130_fd_sc_hd__and3_1
*CAP
1 *223:B 0.000258973
2 *227:B 0
3 *226:A 1.02819e-05
4 *222:X 8.68906e-05
5 *45:23 0.000429139
6 *45:8 0.000267338
7 *223:B *253:B 3.6355e-05
8 *223:B *46:6 2.68464e-05
9 *223:B *50:6 2.71912e-06
10 *45:8 *48:14 5.64507e-05
11 *45:23 *253:B 4.89295e-05
12 *45:23 *48:14 4.1652e-06
13 *223:A *223:B 3.56279e-05
14 *223:A *226:A 4.77757e-05
15 *253:A *223:B 2.05056e-05
16 *26:25 *226:A 4.77757e-05
17 *26:25 *45:23 6.41593e-05
*RES
1 *222:X *45:8 4.98 
2 *45:8 *226:A 4.05 
3 *45:8 *45:23 4.355 
4 *45:23 *227:B 1.6 
5 *45:23 *223:B 8.99 
*END

*D_NET *46 0.00142688
*CONN
*I *242:A1 I *D sky130_fd_sc_hd__a21o_1
*I *243:B I *D sky130_fd_sc_hd__or3_1
*I *224:B I *D sky130_fd_sc_hd__xnor2_1
*I *223:Y O *D sky130_fd_sc_hd__nor2_1
*CAP
1 *242:A1 0
2 *243:B 7.60318e-05
3 *224:B 0
4 *223:Y 0.000157885
5 *46:17 0.000230179
6 *46:6 0.000312033
7 *243:B *242:A2 5.56629e-05
8 *46:6 *50:6 0.000163003
9 *46:17 *242:A2 6.28498e-05
10 *46:17 *50:6 1.12578e-05
11 *223:B *46:6 2.68464e-05
12 *224:A *46:17 0.000173978
13 *36:19 *243:B 8.08439e-05
14 *36:28 *243:B 2.68721e-05
15 *36:28 *46:17 4.94326e-05
*RES
1 *223:Y *46:6 5.155 
2 *46:6 *224:B 1.6 
3 *46:6 *46:17 5.465 
4 *46:17 *243:B 5.745 
5 *46:17 *242:A1 3.6 
*END

*D_NET *47 0.000793519
*CONN
*I *228:A I *D sky130_fd_sc_hd__nand2_1
*I *224:Y O *D sky130_fd_sc_hd__xnor2_1
*CAP
1 *228:A 0.000203067
2 *224:Y 0.000203067
3 *228:A *228:B 8.21619e-05
4 *228:A *230:A 3.00381e-05
5 *228:A *230:B 1.37328e-05
6 *228:A *50:10 8.49205e-05
7 *228:A *52:6 0.00012657
8 *229:A *228:A 4.99619e-05
*RES
1 *224:Y *228:A 7.235 
*END

*D_NET *48 0.000476839
*CONN
*I *227:C I *D sky130_fd_sc_hd__or3_1
*I *226:B I *D sky130_fd_sc_hd__nor2_1
*I *225:Y O *D sky130_fd_sc_hd__a21oi_1
*CAP
1 *227:C 6.12722e-06
2 *226:B 0
3 *225:Y 0.000104056
4 *48:14 0.000110183
5 *222:A *48:14 1.38634e-05
6 *223:A *227:C 3.75126e-05
7 *223:A *48:14 4.77757e-05
8 *26:25 *227:C 4.89295e-05
9 *26:25 *48:14 4.77757e-05
10 *45:8 *48:14 5.64507e-05
11 *45:23 *48:14 4.1652e-06
*RES
1 *225:Y *48:14 7.5575 
2 *48:14 *226:B 1.6 
3 *48:14 *227:C 2.05 
*END

*D_NET *49 0.000592547
*CONN
*I *253:B I *D sky130_fd_sc_hd__xnor2_1
*I *226:Y O *D sky130_fd_sc_hd__nor2_1
*CAP
1 *253:B 0.000111651
2 *226:Y 0.000111651
3 *223:B *253:B 3.6355e-05
4 *253:A *253:B 0.000197001
5 *26:25 *253:B 8.696e-05
6 *45:23 *253:B 4.89295e-05
*RES
1 *226:Y *253:B 10.08 
*END

*D_NET *50 0.00205924
*CONN
*I *242:A2 I *D sky130_fd_sc_hd__a21o_1
*I *228:B I *D sky130_fd_sc_hd__nand2_1
*I *229:B I *D sky130_fd_sc_hd__or2_1
*I *227:X O *D sky130_fd_sc_hd__or3_1
*CAP
1 *242:A2 8.6899e-05
2 *228:B 0.000128518
3 *229:B 0
4 *227:X 0.000395404
5 *50:10 0.000191691
6 *50:6 0.000545476
7 *223:A *50:6 4.85763e-05
8 *223:B *50:6 2.71912e-06
9 *224:A *50:6 4.60584e-05
10 *224:A *50:10 0.000124007
11 *228:A *228:B 8.21619e-05
12 *228:A *50:10 8.49205e-05
13 *229:A *228:B 3.00381e-05
14 *243:B *242:A2 5.56629e-05
15 *46:6 *50:6 0.000163003
16 *46:17 *242:A2 6.28498e-05
17 *46:17 *50:6 1.12578e-05
*RES
1 *227:X *50:6 6.88 
2 *50:6 *50:10 1.845 
3 *50:10 *229:B 1.6 
4 *50:10 *228:B 4.405 
5 *50:6 *242:A2 7.43 
*END

*D_NET *51 0.00011691
*CONN
*I *230:A I *D sky130_fd_sc_hd__and2_1
*I *228:Y O *D sky130_fd_sc_hd__nand2_1
*CAP
1 *230:A 3.53446e-05
2 *228:Y 3.53446e-05
3 *230:A *52:6 1.61831e-05
4 *228:A *230:A 3.00381e-05
*RES
1 *228:Y *230:A 3.995 
*END

*D_NET *52 0.00160074
*CONN
*I *230:B I *D sky130_fd_sc_hd__and2_1
*I *249:A I *D sky130_fd_sc_hd__and4_1
*I *248:A1 I *D sky130_fd_sc_hd__a31oi_1
*I *229:X O *D sky130_fd_sc_hd__or2_1
*CAP
1 *230:B 6.6989e-05
2 *249:A 0
3 *248:A1 5.33712e-05
4 *229:X 0.000138005
5 *52:12 0.000385713
6 *52:6 0.000537337
7 *248:A1 *248:B1 4.82863e-05
8 *248:A1 *249:C 4.60584e-05
9 *52:12 *241:B 0
10 *52:12 *244:A 0.000139245
11 *52:12 *62:18 0
12 *52:12 *68:10 2.92496e-05
13 *228:A *230:B 1.37328e-05
14 *228:A *52:6 0.00012657
15 *230:A *52:6 1.61831e-05
16 *36:19 *52:12 0
17 *36:28 *52:12 0
*RES
1 *229:X *52:6 3.43 
2 *52:6 *52:12 9.715 
3 *52:12 *248:A1 2.74 
4 *52:12 *249:A 1.6 
5 *52:6 *230:B 2.665 
*END

*D_NET *53 0.0002503
*CONN
*I *233:B1 I *D sky130_fd_sc_hd__a31o_1
*I *231:Y O *D sky130_fd_sc_hd__a22oi_1
*CAP
1 *233:B1 6.74182e-05
2 *231:Y 6.74182e-05
3 *233:B1 *84:77 0.000115464
*RES
1 *231:Y *233:B1 8.58 
*END

*D_NET *54 0.000258456
*CONN
*I *233:A3 I *D sky130_fd_sc_hd__a31o_1
*I *232:X O *D sky130_fd_sc_hd__or2_1
*CAP
1 *233:A3 3.26257e-05
2 *232:X 3.26257e-05
3 *233:A3 *67:10 9.66021e-05
4 *233:A3 *80:62 9.66021e-05
*RES
1 *232:X *233:A3 4.685 
*END

*D_NET *55 0.00129325
*CONN
*I *237:A I *D sky130_fd_sc_hd__xnor2_1
*I *246:A1 I *D sky130_fd_sc_hd__o21a_1
*I *233:X O *D sky130_fd_sc_hd__a31o_1
*CAP
1 *237:A 0
2 *246:A1 5.41878e-05
3 *233:X 0.000430725
4 *55:8 0.000484913
5 *246:A1 *237:B 4.8854e-05
6 *246:A1 *67:10 1.52352e-05
7 *55:8 *232:B 4.82919e-05
8 *55:8 *59:12 1.4389e-05
9 *55:8 *67:10 3.34526e-05
10 *55:8 *80:62 0.000163204
*RES
1 *233:X *55:8 7.15 
2 *55:8 *246:A1 2.74 
3 *55:8 *237:A 1.6 
*END

*D_NET *56 0.00104598
*CONN
*I *235:B I *D sky130_fd_sc_hd__nand2_1
*I *236:B I *D sky130_fd_sc_hd__xnor2_1
*I *234:X O *D sky130_fd_sc_hd__and4_1
*CAP
1 *235:B 4.50289e-05
2 *236:B 0.000147309
3 *234:X 8.58466e-05
4 *56:6 0.000278184
5 *235:B *80:54 0.0001249
6 *236:B *234:D 0
7 *236:B *81:19 0
8 *56:6 *80:54 0.000278111
9 *235:A *236:B 0
10 *257:A *56:6 8.65961e-05
*RES
1 *234:X *56:6 4.12 
2 *56:6 *236:B 7.745 
3 *56:6 *235:B 2.74 
*END

*D_NET *57 0.000868767
*CONN
*I *246:B1 I *D sky130_fd_sc_hd__o21a_1
*I *235:Y O *D sky130_fd_sc_hd__nand2_1
*CAP
1 *246:B1 0.00026803
2 *235:Y 0.00026803
3 *246:B1 *58:6 2.68464e-05
4 *246:B1 *81:64 0.000234079
5 *246:B1 *84:10 7.17811e-05
*RES
1 *235:Y *246:B1 11.46 
*END

*D_NET *58 0.000670069
*CONN
*I *237:B I *D sky130_fd_sc_hd__xnor2_1
*I *246:A2 I *D sky130_fd_sc_hd__o21a_1
*I *236:Y O *D sky130_fd_sc_hd__xnor2_1
*CAP
1 *237:B 5.37248e-05
2 *246:A2 0
3 *236:Y 0.000108131
4 *58:6 0.000161856
5 *237:B *67:10 0.000111041
6 *58:6 *67:10 0.000159615
7 *246:A1 *237:B 4.8854e-05
8 *246:B1 *58:6 2.68464e-05
*RES
1 *236:Y *58:6 3.775 
2 *58:6 *246:A2 1.6 
3 *58:6 *237:B 3.1 
*END

*D_NET *59 0.00169345
*CONN
*I *240:A I *D sky130_fd_sc_hd__or2_1
*I *239:B1 I *D sky130_fd_sc_hd__o211a_1
*I *237:Y O *D sky130_fd_sc_hd__xnor2_1
*CAP
1 *240:A 0
2 *239:B1 0.000184184
3 *237:Y 0.000337476
4 *59:12 0.00052166
5 *239:B1 *240:B 0.000120655
6 *239:B1 *85:53 2.8185e-05
7 *59:12 *231:A2 4.39734e-05
8 *59:12 *67:10 4.99619e-05
9 *59:12 *85:25 9.95272e-05
10 *59:12 *85:53 7.63476e-05
11 *211:B *59:12 0.000137571
12 *34:10 *239:B1 2.7881e-05
13 *35:10 *239:B1 5.16418e-05
14 *55:8 *59:12 1.4389e-05
*RES
1 *237:Y *59:12 12.275 
2 *59:12 *239:B1 8.405 
3 *59:12 *240:A 1.6 
*END

*D_NET *60 0.00068138
*CONN
*I *240:B I *D sky130_fd_sc_hd__or2_1