*SPEF "ieee 1481-1999"
*DESIGN "mult8_2bits_1op_e16770"
*DATE "19:05:15 Tuesday September 16, 2025"
*VENDOR "The OpenROAD Project"
*PROGRAM "OpenROAD"
*VERSION "edf00dff99f6c40d67a30c0e22a8191c5d2ed9d6"
*DESIGN_FLOW "NAME_SCOPE LOCAL" "PIN_CAP NONE"
*DIVIDER /
*DELIMITER :
*BUS_DELIMITER []
*T_UNIT 1 NS
*C_UNIT 1 PF
*R_UNIT 1 OHM
*L_UNIT 1 HENRY

*NAME_MAP
*1 A[0]
*2 A[1]
*3 A[2]
*4 A[3]
*5 A[4]
*6 A[5]
*7 A[6]
*8 A[7]
*9 B[0]
*10 B[1]
*11 B[2]
*12 B[3]
*13 B[4]
*14 B[5]
*15 B[6]
*16 B[7]
*17 P[0]
*18 P[10]
*19 P[11]
*20 P[12]
*21 P[13]
*22 P[14]
*23 P[15]
*24 P[1]
*25 P[2]
*26 P[3]
*27 P[4]
*28 P[5]
*29 P[6]
*30 P[7]
*31 P[8]
*32 P[9]
*35 _000_
*36 _001_
*37 _002_
*38 _003_
*39 _004_
*40 _005_
*41 _006_
*42 _007_
*43 _008_
*44 _009_
*45 _010_
*46 _011_
*47 _012_
*48 _013_
*49 _014_
*50 _015_
*51 _016_
*52 _017_
*53 _018_
*54 _019_
*55 _020_
*56 _021_
*57 _022_
*58 _023_
*59 _024_
*60 _025_
*61 _026_
*62 _027_
*63 _028_
*64 _029_
*65 _030_
*66 _031_
*67 _032_
*68 _033_
*69 _034_
*70 _035_
*71 _036_
*72 _037_
*73 _038_
*74 _039_
*75 _040_
*76 _041_
*77 _042_
*78 _043_
*79 _044_
*80 _045_
*81 _046_
*82 _047_
*83 _048_
*84 _049_
*85 _050_
*86 _051_
*87 _052_
*88 _053_
*89 _054_
*90 _055_
*91 _056_
*92 _057_
*93 _058_
*94 _059_
*95 _060_
*96 _061_
*97 _062_
*98 _063_
*99 _064_
*100 _065_
*101 _066_
*102 _067_
*103 _068_
*104 _069_
*105 _070_
*106 _071_
*107 _072_
*108 _073_
*109 _074_
*110 _075_
*111 _076_
*112 _077_
*113 _078_
*114 _079_
*115 _080_
*116 _081_
*117 _082_
*118 _083_
*119 _084_
*120 _085_
*121 _086_
*122 _087_
*123 _088_
*124 _089_
*125 _090_
*126 _091_
*127 _092_
*128 _093_
*129 _094_
*130 _095_
*131 _096_
*132 _097_
*133 _098_
*134 _099_
*135 _100_
*136 _101_
*137 _102_
*138 _103_
*139 _104_
*140 _105_
*141 _106_
*142 _107_
*143 _108_
*144 _109_
*145 _110_
*146 _111_
*147 _112_
*148 _113_
*149 _114_
*150 _115_
*151 _116_
*152 _117_
*153 _118_
*154 _119_
*155 _120_
*156 _121_
*157 _122_
*158 _123_
*159 _124_
*160 _125_
*161 _126_
*162 _127_
*163 _128_
*164 _129_
*165 _130_
*166 _131_
*167 _132_
*168 _133_
*169 _134_
*170 _135_
*171 _136_
*172 _137_
*173 _138_
*174 _139_
*175 _140_
*176 _141_
*177 _142_
*178 _143_
*179 _144_
*180 _145_
*181 _146_
*182 _147_
*183 _148_
*184 _149_
*185 _150_
*186 _151_
*187 _152_
*188 _153_
*189 _154_
*190 _155_
*191 _156_
*192 _157_
*193 _158_
*194 _159_
*195 _160_
*196 _161_
*197 _162_
*198 _163_
*199 _164_
*200 _165_
*201 _166_
*202 _167_
*203 _168_
*204 _169_
*205 _170_
*206 _171_
*207 _172_
*208 _173_
*209 _174_
*210 _175_
*211 _176_
*212 _177_
*213 _178_
*214 _179_
*215 _180_
*216 _181_
*217 _182_
*218 _183_
*219 _184_
*220 _185_
*221 _186_
*222 _187_
*223 _188_
*224 _189_
*225 _190_
*226 _191_
*227 _192_
*228 _193_
*229 _194_
*230 _195_
*231 _196_
*232 _197_
*233 _198_
*234 _199_
*235 _200_
*236 _201_
*237 _202_
*238 _203_
*239 _204_
*240 _205_
*241 _206_
*242 _207_
*243 _208_
*244 _209_
*245 _210_
*246 _211_
*247 _212_
*248 _213_
*249 _214_
*250 _215_
*251 _216_
*252 _217_
*253 _218_
*254 _219_
*255 _220_
*256 _221_
*257 _222_
*258 _223_
*259 _224_
*260 _225_
*261 _226_
*262 _227_
*263 _228_
*264 _229_
*265 _230_
*266 _231_
*267 _232_
*268 _233_
*269 _234_
*270 _235_
*271 _236_
*272 _237_
*273 _238_
*274 _239_
*275 _240_
*276 _241_
*277 _242_
*278 _243_
*279 _244_
*280 _245_
*281 _246_
*282 _247_
*283 _248_
*284 _249_
*285 _250_
*286 _251_
*287 _252_
*288 _253_
*289 _254_
*290 _255_
*291 _256_
*292 _257_
*293 _258_
*294 _259_
*295 _260_
*296 _261_
*297 _262_
*298 _263_
*299 _264_
*300 _265_
*301 _266_
*302 _267_
*303 _268_
*304 _269_
*305 _270_
*306 _271_
*307 _272_
*308 _273_
*309 net1
*310 net10
*311 net11
*312 net12
*313 net13
*314 net14
*315 net15
*316 net16
*317 net17
*318 net18
*319 net19
*320 net2
*321 net20
*322 net21
*323 net22
*324 net23
*325 net24
*326 net25
*327 net26
*328 net27
*329 net28
*330 net29
*331 net3
*332 net30
*333 net31
*334 net32
*335 net33
*336 net34
*337 net35
*338 net36
*339 net37
*340 net38
*341 net39
*342 net4
*343 net40
*344 net41
*345 net42
*346 net43
*347 net44
*348 net45
*349 net46
*350 net47
*351 net48
*352 net49
*353 net5
*354 net50
*355 net51
*356 net52
*357 net53
*358 net54
*359 net55
*360 net56
*361 net57
*362 net58
*363 net59
*364 net6
*365 net60
*366 net61
*367 net62
*368 net63
*369 net64
*370 net65
*371 net66
*372 net67
*373 net68
*374 net69
*375 net7
*376 net70
*377 net71
*378 net72
*379 net73
*380 net74
*381 net75
*382 net76
*383 net77
*384 net78
*385 net79
*386 net8
*387 net80
*388 net81
*389 net9
*390 net92
*391 net93
*392 net94
*393 net95
*394 net96
*395 net97
*396 net98
*397 net99
*398 FILLER_0_110
*399 FILLER_0_113
*400 FILLER_0_119
*401 FILLER_0_131
*402 FILLER_0_139
*403 FILLER_0_141
*404 FILLER_0_15
*405 FILLER_0_153
*406 FILLER_0_165
*407 FILLER_0_169
*408 FILLER_0_181
*409 FILLER_0_188
*410 FILLER_0_197
*411 FILLER_0_203
*412 FILLER_0_210
*413 FILLER_0_222
*414 FILLER_0_225
*415 FILLER_0_237
*416 FILLER_0_249
*417 FILLER_0_259
*418 FILLER_0_27
*419 FILLER_0_271
*420 FILLER_0_279
*421 FILLER_0_281
*422 FILLER_0_289
*423 FILLER_0_29
*424 FILLER_0_296
*425 FILLER_0_3
*426 FILLER_0_309
*427 FILLER_0_321
*428 FILLER_0_333
*429 FILLER_0_337
*430 FILLER_0_349
*431 FILLER_0_361
*432 FILLER_0_365
*433 FILLER_0_377
*434 FILLER_0_389
*435 FILLER_0_393
*436 FILLER_0_405
*437 FILLER_0_41
*438 FILLER_0_53
*439 FILLER_0_57
*440 FILLER_0_69
*441 FILLER_0_81
*442 FILLER_0_85
*443 FILLER_0_97
*444 FILLER_10_109
*445 FILLER_10_121
*446 FILLER_10_133
*447 FILLER_10_139
*448 FILLER_10_141
*449 FILLER_10_15
*450 FILLER_10_153
*451 FILLER_10_165
*452 FILLER_10_177
*453 FILLER_10_189
*454 FILLER_10_195
*455 FILLER_10_197
*456 FILLER_10_209
*457 FILLER_10_221
*458 FILLER_10_233
*459 FILLER_10_245
*460 FILLER_10_251
*461 FILLER_10_253
*462 FILLER_10_265
*463 FILLER_10_27
*464 FILLER_10_277
*465 FILLER_10_289
*466 FILLER_10_29
*467 FILLER_10_3
*468 FILLER_10_301
*469 FILLER_10_307
*470 FILLER_10_309
*471 FILLER_10_321
*472 FILLER_10_333
*473 FILLER_10_345
*474 FILLER_10_357
*475 FILLER_10_363
*476 FILLER_10_365
*477 FILLER_10_377
*478 FILLER_10_389
*479 FILLER_10_401
*480 FILLER_10_41
*481 FILLER_10_53
*482 FILLER_10_65
*483 FILLER_10_77
*484 FILLER_10_83
*485 FILLER_10_85
*486 FILLER_10_97
*487 FILLER_11_105
*488 FILLER_11_111
*489 FILLER_11_113
*490 FILLER_11_125
*491 FILLER_11_137
*492 FILLER_11_149
*493 FILLER_11_15
*494 FILLER_11_161
*495 FILLER_11_167
*496 FILLER_11_169
*497 FILLER_11_181
*498 FILLER_11_193
*499 FILLER_11_205
*500 FILLER_11_217
*501 FILLER_11_223
*502 FILLER_11_225
*503 FILLER_11_237
*504 FILLER_11_249
*505 FILLER_11_261
*506 FILLER_11_27
*507 FILLER_11_273
*508 FILLER_11_279
*509 FILLER_11_281
*510 FILLER_11_293
*511 FILLER_11_3
*512 FILLER_11_305
*513 FILLER_11_317
*514 FILLER_11_329
*515 FILLER_11_335
*516 FILLER_11_337
*517 FILLER_11_349
*518 FILLER_11_361
*519 FILLER_11_373
*520 FILLER_11_385
*521 FILLER_11_39
*522 FILLER_11_391
*523 FILLER_11_393
*524 FILLER_11_405
*525 FILLER_11_51
*526 FILLER_11_55
*527 FILLER_11_57
*528 FILLER_11_69
*529 FILLER_11_81
*530 FILLER_11_93
*531 FILLER_12_109
*532 FILLER_12_121
*533 FILLER_12_133
*534 FILLER_12_139
*535 FILLER_12_141
*536 FILLER_12_15
*537 FILLER_12_153
*538 FILLER_12_165
*539 FILLER_12_177
*540 FILLER_12_189
*541 FILLER_12_195
*542 FILLER_12_197
*543 FILLER_12_209
*544 FILLER_12_221
*545 FILLER_12_233
*546 FILLER_12_245
*547 FILLER_12_251
*548 FILLER_12_253
*549 FILLER_12_265
*550 FILLER_12_27
*551 FILLER_12_277
*552 FILLER_12_289
*553 FILLER_12_29
*554 FILLER_12_3
*555 FILLER_12_301
*556 FILLER_12_307
*557 FILLER_12_309
*558 FILLER_12_321
*559 FILLER_12_333
*560 FILLER_12_345
*561 FILLER_12_357
*562 FILLER_12_363
*563 FILLER_12_365
*564 FILLER_12_377
*565 FILLER_12_389
*566 FILLER_12_401
*567 FILLER_12_41
*568 FILLER_12_53
*569 FILLER_12_65
*570 FILLER_12_77
*571 FILLER_12_83
*572 FILLER_12_85
*573 FILLER_12_97
*574 FILLER_13_105
*575 FILLER_13_111
*576 FILLER_13_113
*577 FILLER_13_125
*578 FILLER_13_137
*579 FILLER_13_149
*580 FILLER_13_15
*581 FILLER_13_161
*582 FILLER_13_167
*583 FILLER_13_169
*584 FILLER_13_181
*585 FILLER_13_193
*586 FILLER_13_205
*587 FILLER_13_217
*588 FILLER_13_223
*589 FILLER_13_225
*590 FILLER_13_237
*591 FILLER_13_249
*592 FILLER_13_261
*593 FILLER_13_27
*594 FILLER_13_273
*595 FILLER_13_279
*596 FILLER_13_281
*597 FILLER_13_293
*598 FILLER_13_3
*599 FILLER_13_305
*600 FILLER_13_317
*601 FILLER_13_329
*602 FILLER_13_335
*603 FILLER_13_337
*604 FILLER_13_349
*605 FILLER_13_361
*606 FILLER_13_373
*607 FILLER_13_385
*608 FILLER_13_39
*609 FILLER_13_391
*610 FILLER_13_393
*611 FILLER_13_405
*612 FILLER_13_51
*613 FILLER_13_55
*614 FILLER_13_57
*615 FILLER_13_69
*616 FILLER_13_81
*617 FILLER_13_93
*618 FILLER_14_109
*619 FILLER_14_121
*620 FILLER_14_133
*621 FILLER_14_139
*622 FILLER_14_141
*623 FILLER_14_15
*624 FILLER_14_153
*625 FILLER_14_165
*626 FILLER_14_177
*627 FILLER_14_190
*628 FILLER_14_197
*629 FILLER_14_209
*630 FILLER_14_221
*631 FILLER_14_233
*632 FILLER_14_245
*633 FILLER_14_251
*634 FILLER_14_253
*635 FILLER_14_265
*636 FILLER_14_27
*637 FILLER_14_277
*638 FILLER_14_289
*639 FILLER_14_29
*640 FILLER_14_3
*641 FILLER_14_301
*642 FILLER_14_307
*643 FILLER_14_309
*644 FILLER_14_321
*645 FILLER_14_333
*646 FILLER_14_345
*647 FILLER_14_357
*648 FILLER_14_363
*649 FILLER_14_365
*650 FILLER_14_377
*651 FILLER_14_389
*652 FILLER_14_401
*653 FILLER_14_41
*654 FILLER_14_53
*655 FILLER_14_65
*656 FILLER_14_77
*657 FILLER_14_83
*658 FILLER_14_85
*659 FILLER_14_97
*660 FILLER_15_105
*661 FILLER_15_111
*662 FILLER_15_113
*663 FILLER_15_125
*664 FILLER_15_137
*665 FILLER_15_149
*666 FILLER_15_15
*667 FILLER_15_161
*668 FILLER_15_167
*669 FILLER_15_169
*670 FILLER_15_177
*671 FILLER_15_187
*672 FILLER_15_199
*673 FILLER_15_211
*674 FILLER_15_223
*675 FILLER_15_225
*676 FILLER_15_237
*677 FILLER_15_249
*678 FILLER_15_261
*679 FILLER_15_27
*680 FILLER_15_273
*681 FILLER_15_279
*682 FILLER_15_281
*683 FILLER_15_293
*684 FILLER_15_3
*685 FILLER_15_305
*686 FILLER_15_317
*687 FILLER_15_329
*688 FILLER_15_335
*689 FILLER_15_337
*690 FILLER_15_349
*691 FILLER_15_361
*692 FILLER_15_373
*693 FILLER_15_385
*694 FILLER_15_39
*695 FILLER_15_391
*696 FILLER_15_393
*697 FILLER_15_405
*698 FILLER_15_51
*699 FILLER_15_55
*700 FILLER_15_57
*701 FILLER_15_69
*702 FILLER_15_81
*703 FILLER_15_93
*704 FILLER_16_109
*705 FILLER_16_113
*706 FILLER_16_127
*707 FILLER_16_139
*708 FILLER_16_141
*709 FILLER_16_15
*710 FILLER_16_153
*711 FILLER_16_165
*712 FILLER_16_171
*713 FILLER_16_200
*714 FILLER_16_212
*715 FILLER_16_224
*716 FILLER_16_232
*717 FILLER_16_242
*718 FILLER_16_250
*719 FILLER_16_253
*720 FILLER_16_265
*721 FILLER_16_27
*722 FILLER_16_277
*723 FILLER_16_289
*724 FILLER_16_29
*725 FILLER_16_3
*726 FILLER_16_301
*727 FILLER_16_307
*728 FILLER_16_309
*729 FILLER_16_321
*730 FILLER_16_333
*731 FILLER_16_345
*732 FILLER_16_357
*733 FILLER_16_363
*734 FILLER_16_365
*735 FILLER_16_377
*736 FILLER_16_389
*737 FILLER_16_401
*738 FILLER_16_41
*739 FILLER_16_53
*740 FILLER_16_65
*741 FILLER_16_77
*742 FILLER_16_83
*743 FILLER_16_85
*744 FILLER_16_97
*745 FILLER_17_105
*746 FILLER_17_111
*747 FILLER_17_113
*748 FILLER_17_120
*749 FILLER_17_132
*750 FILLER_17_15
*751 FILLER_17_151
*752 FILLER_17_169
*753 FILLER_17_181
*754 FILLER_17_193
*755 FILLER_17_205
*756 FILLER_17_217
*757 FILLER_17_223
*758 FILLER_17_225
*759 FILLER_17_242
*760 FILLER_17_254
*761 FILLER_17_266
*762 FILLER_17_27
*763 FILLER_17_278
*764 FILLER_17_281
*765 FILLER_17_293
*766 FILLER_17_3
*767 FILLER_17_305
*768 FILLER_17_317
*769 FILLER_17_329
*770 FILLER_17_335
*771 FILLER_17_337
*772 FILLER_17_349
*773 FILLER_17_361
*774 FILLER_17_373
*775 FILLER_17_385
*776 FILLER_17_39
*777 FILLER_17_391
*778 FILLER_17_393
*779 FILLER_17_405
*780 FILLER_17_51
*781 FILLER_17_55
*782 FILLER_17_57
*783 FILLER_17_69
*784 FILLER_17_81
*785 FILLER_17_93
*786 FILLER_18_109
*787 FILLER_18_121
*788 FILLER_18_133
*789 FILLER_18_139
*790 FILLER_18_15
*791 FILLER_18_164
*792 FILLER_18_176
*793 FILLER_18_180
*794 FILLER_18_188
*795 FILLER_18_197
*796 FILLER_18_209
*797 FILLER_18_221
*798 FILLER_18_239
*799 FILLER_18_246
*800 FILLER_18_253
*801 FILLER_18_265
*802 FILLER_18_27
*803 FILLER_18_277
*804 FILLER_18_289
*805 FILLER_18_29
*806 FILLER_18_3
*807 FILLER_18_301
*808 FILLER_18_307
*809 FILLER_18_309
*810 FILLER_18_321
*811 FILLER_18_333
*812 FILLER_18_345
*813 FILLER_18_357
*814 FILLER_18_363
*815 FILLER_18_365
*816 FILLER_18_377
*817 FILLER_18_389
*818 FILLER_18_401
*819 FILLER_18_41
*820 FILLER_18_53
*821 FILLER_18_65
*822 FILLER_18_77
*823 FILLER_18_83
*824 FILLER_18_85
*825 FILLER_18_97
*826 FILLER_19_101
*827 FILLER_19_109
*828 FILLER_19_113
*829 FILLER_19_129
*830 FILLER_19_141
*831 FILLER_19_15
*832 FILLER_19_153
*833 FILLER_19_165
*834 FILLER_19_169
*835 FILLER_19_181
*836 FILLER_19_190
*837 FILLER_19_202
*838 FILLER_19_214
*839 FILLER_19_222
*840 FILLER_19_225
*841 FILLER_19_237
*842 FILLER_19_249
*843 FILLER_19_261
*844 FILLER_19_27
*845 FILLER_19_273
*846 FILLER_19_279
*847 FILLER_19_281
*848 FILLER_19_293
*849 FILLER_19_3
*850 FILLER_19_305
*851 FILLER_19_317
*852 FILLER_19_329
*853 FILLER_19_335
*854 FILLER_19_337
*855 FILLER_19_349
*856 FILLER_19_361
*857 FILLER_19_373
*858 FILLER_19_385
*859 FILLER_19_39
*860 FILLER_19_391
*861 FILLER_19_393
*862 FILLER_19_405
*863 FILLER_19_51
*864 FILLER_19_55
*865 FILLER_19_57
*866 FILLER_19_69
*867 FILLER_19_81
*868 FILLER_19_87
*869 FILLER_1_105
*870 FILLER_1_111
*871 FILLER_1_113
*872 FILLER_1_125
*873 FILLER_1_137
*874 FILLER_1_149
*875 FILLER_1_15
*876 FILLER_1_161
*877 FILLER_1_167
*878 FILLER_1_169
*879 FILLER_1_181
*880 FILLER_1_193
*881 FILLER_1_205
*882 FILLER_1_217
*883 FILLER_1_223
*884 FILLER_1_225
*885 FILLER_1_237
*886 FILLER_1_249
*887 FILLER_1_261
*888 FILLER_1_27
*889 FILLER_1_273
*890 FILLER_1_279
*891 FILLER_1_281
*892 FILLER_1_293
*893 FILLER_1_3
*894 FILLER_1_305
*895 FILLER_1_317
*896 FILLER_1_329
*897 FILLER_1_335
*898 FILLER_1_337
*899 FILLER_1_349
*900 FILLER_1_361
*901 FILLER_1_373
*902 FILLER_1_385
*903 FILLER_1_39
*904 FILLER_1_391
*905 FILLER_1_393
*906 FILLER_1_405
*907 FILLER_1_51
*908 FILLER_1_55
*909 FILLER_1_57
*910 FILLER_1_69
*911 FILLER_1_81
*912 FILLER_1_93
*913 FILLER_20_107
*914 FILLER_20_119
*915 FILLER_20_131
*916 FILLER_20_139
*917 FILLER_20_141
*918 FILLER_20_153
*919 FILLER_20_159
*920 FILLER_20_187
*921 FILLER_20_19
*922 FILLER_20_195
*923 FILLER_20_197
*924 FILLER_20_209
*925 FILLER_20_221
*926 FILLER_20_229
*927 FILLER_20_237
*928 FILLER_20_249
*929 FILLER_20_253
*930 FILLER_20_265
*931 FILLER_20_27
*932 FILLER_20_280
*933 FILLER_20_29
*934 FILLER_20_292
*935 FILLER_20_304
*936 FILLER_20_309
*937 FILLER_20_321
*938 FILLER_20_333
*939 FILLER_20_345
*940 FILLER_20_357
*941 FILLER_20_363
*942 FILLER_20_365
*943 FILLER_20_377
*944 FILLER_20_389
*945 FILLER_20_401
*946 FILLER_20_41
*947 FILLER_20_53
*948 FILLER_20_65
*949 FILLER_20_7
*950 FILLER_20_76
*951 FILLER_20_80
*952 FILLER_20_85
*953 FILLER_21_105
*954 FILLER_21_111
*955 FILLER_21_116
*956 FILLER_21_128
*957 FILLER_21_140
*958 FILLER_21_15
*959 FILLER_21_152
*960 FILLER_21_164
*961 FILLER_21_169
*962 FILLER_21_181
*963 FILLER_21_189
*964 FILLER_21_198
*965 FILLER_21_210
*966 FILLER_21_222
*967 FILLER_21_228
*968 FILLER_21_240
*969 FILLER_21_252
*970 FILLER_21_264
*971 FILLER_21_27
*972 FILLER_21_272
*973 FILLER_21_281
*974 FILLER_21_293
*975 FILLER_21_3
*976 FILLER_21_305
*977 FILLER_21_317
*978 FILLER_21_329
*979 FILLER_21_335
*980 FILLER_21_337
*981 FILLER_21_349
*982 FILLER_21_361
*983 FILLER_21_373
*984 FILLER_21_385
*985 FILLER_21_39
*986 FILLER_21_391
*987 FILLER_21_393
*988 FILLER_21_405
*989 FILLER_21_51
*990 FILLER_21_55
*991 FILLER_21_57
*992 FILLER_21_69
*993 FILLER_21_81
*994 FILLER_21_93
*995 FILLER_22_102
*996 FILLER_22_128
*997 FILLER_22_141
*998 FILLER_22_15
*999 FILLER_22_153
*1000 FILLER_22_165
*1001 FILLER_22_177
*1002 FILLER_22_189
*1003 FILLER_22_195
*1004 FILLER_22_197
*1005 FILLER_22_209
*1006 FILLER_22_215
*1007 FILLER_22_219
*1008 FILLER_22_246
*1009 FILLER_22_253
*1010 FILLER_22_265
*1011 FILLER_22_27
*1012 FILLER_22_286
*1013 FILLER_22_29
*1014 FILLER_22_298
*1015 FILLER_22_3
*1016 FILLER_22_306
*1017 FILLER_22_309
*1018 FILLER_22_321
*1019 FILLER_22_333
*1020 FILLER_22_345
*1021 FILLER_22_357
*1022 FILLER_22_363
*1023 FILLER_22_365
*1024 FILLER_22_377
*1025 FILLER_22_389
*1026 FILLER_22_397
*1027 FILLER_22_41
*1028 FILLER_22_49
*1029 FILLER_22_56
*1030 FILLER_22_81
*1031 FILLER_22_90
*1032 FILLER_23_104
*1033 FILLER_23_111
*1034 FILLER_23_118
*1035 FILLER_23_130
*1036 FILLER_23_144
*1037 FILLER_23_15
*1038 FILLER_23_156
*1039 FILLER_23_169
*1040 FILLER_23_183
*1041 FILLER_23_195
*1042 FILLER_23_207
*1043 FILLER_23_218
*1044 FILLER_23_225
*1045 FILLER_23_237
*1046 FILLER_23_249
*1047 FILLER_23_261
*1048 FILLER_23_27
*1049 FILLER_23_273
*1050 FILLER_23_279
*1051 FILLER_23_281
*1052 FILLER_23_293
*1053 FILLER_23_3
*1054 FILLER_23_305
*1055 FILLER_23_317
*1056 FILLER_23_329
*1057 FILLER_23_335
*1058 FILLER_23_337
*1059 FILLER_23_349
*1060 FILLER_23_361
*1061 FILLER_23_373
*1062 FILLER_23_385
*1063 FILLER_23_39
*1064 FILLER_23_391
*1065 FILLER_23_393
*1066 FILLER_23_405
*1067 FILLER_23_47
*1068 FILLER_23_63
*1069 FILLER_23_67
*1070 FILLER_23_72
*1071 FILLER_23_84
*1072 FILLER_23_96
*1073 FILLER_24_109
*1074 FILLER_24_121
*1075 FILLER_24_133
*1076 FILLER_24_139
*1077 FILLER_24_141
*1078 FILLER_24_15
*1079 FILLER_24_153
*1080 FILLER_24_165
*1081 FILLER_24_197
*1082 FILLER_24_209
*1083 FILLER_24_221
*1084 FILLER_24_233
*1085 FILLER_24_245
*1086 FILLER_24_251
*1087 FILLER_24_253
*1088 FILLER_24_265
*1089 FILLER_24_27
*1090 FILLER_24_277
*1091 FILLER_24_289
*1092 FILLER_24_29
*1093 FILLER_24_3
*1094 FILLER_24_301
*1095 FILLER_24_307
*1096 FILLER_24_309
*1097 FILLER_24_321
*1098 FILLER_24_333
*1099 FILLER_24_345
*1100 FILLER_24_357
*1101 FILLER_24_363
*1102 FILLER_24_365
*1103 FILLER_24_377
*1104 FILLER_24_389
*1105 FILLER_24_401
*1106 FILLER_24_45
*1107 FILLER_24_57
*1108 FILLER_24_69
*1109 FILLER_24_81
*1110 FILLER_24_85
*1111 FILLER_24_97
*1112 FILLER_25_105
*1113 FILLER_25_111
*1114 FILLER_25_113
*1115 FILLER_25_125
*1116 FILLER_25_129
*1117 FILLER_25_148
*1118 FILLER_25_160
*1119 FILLER_25_169
*1120 FILLER_25_188
*1121 FILLER_25_19
*1122 FILLER_25_200
*1123 FILLER_25_212
*1124 FILLER_25_225
*1125 FILLER_25_237
*1126 FILLER_25_249
*1127 FILLER_25_261
*1128 FILLER_25_273
*1129 FILLER_25_279
*1130 FILLER_25_281
*1131 FILLER_25_293
*1132 FILLER_25_301
*1133 FILLER_25_313
*1134 FILLER_25_325
*1135 FILLER_25_333
*1136 FILLER_25_337
*1137 FILLER_25_349
*1138 FILLER_25_361
*1139 FILLER_25_373
*1140 FILLER_25_385
*1141 FILLER_25_391
*1142 FILLER_25_393
*1143 FILLER_25_41
*1144 FILLER_25_53
*1145 FILLER_25_57
*1146 FILLER_25_69
*1147 FILLER_25_7
*1148 FILLER_25_81
*1149 FILLER_25_93
*1150 FILLER_26_109
*1151 FILLER_26_137
*1152 FILLER_26_148
*1153 FILLER_26_160
*1154 FILLER_26_172
*1155 FILLER_26_184
*1156 FILLER_26_19
*1157 FILLER_26_197
*1158 FILLER_26_209
*1159 FILLER_26_221
*1160 FILLER_26_233
*1161 FILLER_26_245
*1162 FILLER_26_251
*1163 FILLER_26_253
*1164 FILLER_26_261
*1165 FILLER_26_27
*1166 FILLER_26_275
*1167 FILLER_26_287
*1168 FILLER_26_299
*1169 FILLER_26_307
*1170 FILLER_26_309
*1171 FILLER_26_321
*1172 FILLER_26_333
*1173 FILLER_26_345
*1174 FILLER_26_357
*1175 FILLER_26_363
*1176 FILLER_26_365
*1177 FILLER_26_377
*1178 FILLER_26_389
*1179 FILLER_26_401
*1180 FILLER_26_48
*1181 FILLER_26_60
*1182 FILLER_26_7
*1183 FILLER_26_72
*1184 FILLER_26_85
*1185 FILLER_26_97
*1186 FILLER_27_107
*1187 FILLER_27_111
*1188 FILLER_27_113
*1189 FILLER_27_126
*1190 FILLER_27_143
*1191 FILLER_27_155
*1192 FILLER_27_167
*1193 FILLER_27_169
*1194 FILLER_27_181
*1195 FILLER_27_19
*1196 FILLER_27_193
*1197 FILLER_27_205
*1198 FILLER_27_217
*1199 FILLER_27_223
*1200 FILLER_27_225
*1201 FILLER_27_237
*1202 FILLER_27_249
*1203 FILLER_27_274
*1204 FILLER_27_281
*1205 FILLER_27_289
*1206 FILLER_27_29
*1207 FILLER_27_296
*1208 FILLER_27_308
*1209 FILLER_27_320
*1210 FILLER_27_332
*1211 FILLER_27_337
*1212 FILLER_27_349
*1213 FILLER_27_361
*1214 FILLER_27_373
*1215 FILLER_27_385
*1216 FILLER_27_391
*1217 FILLER_27_393
*1218 FILLER_27_40
*1219 FILLER_27_405
*1220 FILLER_27_52
*1221 FILLER_27_57
*1222 FILLER_27_65
*1223 FILLER_27_7
*1224 FILLER_27_73
*1225 FILLER_27_83
*1226 FILLER_27_95
*1227 FILLER_28_108
*1228 FILLER_28_116
*1229 FILLER_28_136
*1230 FILLER_28_141
*1231 FILLER_28_15
*1232 FILLER_28_153
*1233 FILLER_28_165
*1234 FILLER_28_187
*1235 FILLER_28_193
*1236 FILLER_28_197
*1237 FILLER_28_20
*1238 FILLER_28_209
*1239 FILLER_28_221
*1240 FILLER_28_232
*1241 FILLER_28_244
*1242 FILLER_28_253
*1243 FILLER_28_262
*1244 FILLER_28_268
*1245 FILLER_28_276
*1246 FILLER_28_29
*1247 FILLER_28_3
*1248 FILLER_28_307
*1249 FILLER_28_316
*1250 FILLER_28_328
*1251 FILLER_28_340
*1252 FILLER_28_352
*1253 FILLER_28_365
*1254 FILLER_28_37
*1255 FILLER_28_377
*1256 FILLER_28_389
*1257 FILLER_28_401
*1258 FILLER_28_49
*1259 FILLER_28_61
*1260 FILLER_28_73
*1261 FILLER_28_92
*1262 FILLER_29_107
*1263 FILLER_29_111
*1264 FILLER_29_113
*1265 FILLER_29_119
*1266 FILLER_29_137
*1267 FILLER_29_149
*1268 FILLER_29_161
*1269 FILLER_29_167
*1270 FILLER_29_169
*1271 FILLER_29_177
*1272 FILLER_29_198
*1273 FILLER_29_20
*1274 FILLER_29_218
*1275 FILLER_29_225
*1276 FILLER_29_237
*1277 FILLER_29_245
*1278 FILLER_29_256
*1279 FILLER_29_268
*1280 FILLER_29_28
*1281 FILLER_29_291
*1282 FILLER_29_303
*1283 FILLER_29_315
*1284 FILLER_29_327
*1285 FILLER_29_335
*1286 FILLER_29_337
*1287 FILLER_29_349
*1288 FILLER_29_361
*1289 FILLER_29_373
*1290 FILLER_29_385
*1291 FILLER_29_391
*1292 FILLER_29_393
*1293 FILLER_29_405
*1294 FILLER_29_46
*1295 FILLER_29_54
*1296 FILLER_29_57
*1297 FILLER_29_64
*1298 FILLER_29_7
*1299 FILLER_29_97
*1300 FILLER_2_109
*1301 FILLER_2_121
*1302 FILLER_2_133
*1303 FILLER_2_139
*1304 FILLER_2_141
*1305 FILLER_2_15
*1306 FILLER_2_153
*1307 FILLER_2_165
*1308 FILLER_2_177
*1309 FILLER_2_189
*1310 FILLER_2_195
*1311 FILLER_2_197
*1312 FILLER_2_209
*1313 FILLER_2_221
*1314 FILLER_2_233
*1315 FILLER_2_245
*1316 FILLER_2_251
*1317 FILLER_2_253
*1318 FILLER_2_265
*1319 FILLER_2_27
*1320 FILLER_2_277
*1321 FILLER_2_289
*1322 FILLER_2_29
*1323 FILLER_2_3
*1324 FILLER_2_301
*1325 FILLER_2_307
*1326 FILLER_2_309
*1327 FILLER_2_321
*1328 FILLER_2_333
*1329 FILLER_2_345
*1330 FILLER_2_357
*1331 FILLER_2_363
*1332 FILLER_2_365
*1333 FILLER_2_377
*1334 FILLER_2_389
*1335 FILLER_2_401
*1336 FILLER_2_41
*1337 FILLER_2_53
*1338 FILLER_2_65
*1339 FILLER_2_77
*1340 FILLER_2_83
*1341 FILLER_2_85
*1342 FILLER_2_97
*1343 FILLER_30_108
*1344 FILLER_30_11
*1345 FILLER_30_120
*1346 FILLER_30_132
*1347 FILLER_30_141
*1348 FILLER_30_153
*1349 FILLER_30_165
*1350 FILLER_30_190
*1351 FILLER_30_197
*1352 FILLER_30_209
*1353 FILLER_30_221
*1354 FILLER_30_233
*1355 FILLER_30_244
*1356 FILLER_30_253
*1357 FILLER_30_265
*1358 FILLER_30_277
*1359 FILLER_30_289
*1360 FILLER_30_3
*1361 FILLER_30_301
*1362 FILLER_30_307
*1363 FILLER_30_309
*1364 FILLER_30_32
*1365 FILLER_30_321
*1366 FILLER_30_333
*1367 FILLER_30_345
*1368 FILLER_30_357
*1369 FILLER_30_363
*1370 FILLER_30_365
*1371 FILLER_30_377
*1372 FILLER_30_389
*1373 FILLER_30_401
*1374 FILLER_30_50
*1375 FILLER_30_56
*1376 FILLER_30_73
*1377 FILLER_30_95
*1378 FILLER_31_106
*1379 FILLER_31_113
*1380 FILLER_31_125
*1381 FILLER_31_137
*1382 FILLER_31_143
*1383 FILLER_31_155
*1384 FILLER_31_167
*1385 FILLER_31_169
*1386 FILLER_31_181
*1387 FILLER_31_193
*1388 FILLER_31_205
*1389 FILLER_31_217
*1390 FILLER_31_223
*1391 FILLER_31_225
*1392 FILLER_31_233
*1393 FILLER_31_239
*1394 FILLER_31_251
*1395 FILLER_31_263
*1396 FILLER_31_275
*1397 FILLER_31_279
*1398 FILLER_31_281
*1399 FILLER_31_293
*1400 FILLER_31_305
*1401 FILLER_31_317
*1402 FILLER_31_329
*1403 FILLER_31_335
*1404 FILLER_31_337
*1405 FILLER_31_349
*1406 FILLER_31_361
*1407 FILLER_31_373
*1408 FILLER_31_385
*1409 FILLER_31_391
*1410 FILLER_31_393
*1411 FILLER_31_405
*1412 FILLER_31_45
*1413 FILLER_31_53
*1414 FILLER_31_57
*1415 FILLER_31_7
*1416 FILLER_31_79
*1417 FILLER_32_104
*1418 FILLER_32_11
*1419 FILLER_32_116
*1420 FILLER_32_128
*1421 FILLER_32_141
*1422 FILLER_32_153
*1423 FILLER_32_165
*1424 FILLER_32_177
*1425 FILLER_32_189
*1426 FILLER_32_195
*1427 FILLER_32_197
*1428 FILLER_32_209
*1429 FILLER_32_221
*1430 FILLER_32_233
*1431 FILLER_32_245
*1432 FILLER_32_251
*1433 FILLER_32_253
*1434 FILLER_32_265
*1435 FILLER_32_277
*1436 FILLER_32_289
*1437 FILLER_32_3
*1438 FILLER_32_301
*1439 FILLER_32_307
*1440 FILLER_32_309
*1441 FILLER_32_321
*1442 FILLER_32_333
*1443 FILLER_32_345
*1444 FILLER_32_357
*1445 FILLER_32_363
*1446 FILLER_32_365
*1447 FILLER_32_377
*1448 FILLER_32_389
*1449 FILLER_32_401
*1450 FILLER_32_55
*1451 FILLER_32_67
*1452 FILLER_32_92
*1453 FILLER_33_105
*1454 FILLER_33_111
*1455 FILLER_33_113
*1456 FILLER_33_125
*1457 FILLER_33_137
*1458 FILLER_33_149
*1459 FILLER_33_15
*1460 FILLER_33_161
*1461 FILLER_33_167
*1462 FILLER_33_169
*1463 FILLER_33_175
*1464 FILLER_33_184
*1465 FILLER_33_196
*1466 FILLER_33_208
*1467 FILLER_33_220
*1468 FILLER_33_225
*1469 FILLER_33_23
*1470 FILLER_33_231
*1471 FILLER_33_243
*1472 FILLER_33_255
*1473 FILLER_33_267
*1474 FILLER_33_279
*1475 FILLER_33_281
*1476 FILLER_33_289
*1477 FILLER_33_296
*1478 FILLER_33_3
*1479 FILLER_33_308
*1480 FILLER_33_320
*1481 FILLER_33_332
*1482 FILLER_33_337
*1483 FILLER_33_349
*1484 FILLER_33_36
*1485 FILLER_33_361
*1486 FILLER_33_373
*1487 FILLER_33_385
*1488 FILLER_33_391
*1489 FILLER_33_393
*1490 FILLER_33_405
*1491 FILLER_33_45
*1492 FILLER_33_53
*1493 FILLER_33_57
*1494 FILLER_33_76
*1495 FILLER_33_93
*1496 FILLER_34_109
*1497 FILLER_34_121
*1498 FILLER_34_133
*1499 FILLER_34_139
*1500 FILLER_34_141
*1501 FILLER_34_15
*1502 FILLER_34_153
*1503 FILLER_34_165
*1504 FILLER_34_173
*1505 FILLER_34_197
*1506 FILLER_34_209
*1507 FILLER_34_221
*1508 FILLER_34_233
*1509 FILLER_34_245
*1510 FILLER_34_251
*1511 FILLER_34_253
*1512 FILLER_34_262
*1513 FILLER_34_27
*1514 FILLER_34_274
*1515 FILLER_34_286
*1516 FILLER_34_29
*1517 FILLER_34_294
*1518 FILLER_34_3
*1519 FILLER_34_306
*1520 FILLER_34_309
*1521 FILLER_34_321
*1522 FILLER_34_333
*1523 FILLER_34_345
*1524 FILLER_34_357
*1525 FILLER_34_363
*1526 FILLER_34_365
*1527 FILLER_34_377
*1528 FILLER_34_389
*1529 FILLER_34_401
*1530 FILLER_34_41
*1531 FILLER_34_53
*1532 FILLER_34_65
*1533 FILLER_34_77
*1534 FILLER_34_83
*1535 FILLER_34_85
*1536 FILLER_34_97
*1537 FILLER_35_110
*1538 FILLER_35_113
*1539 FILLER_35_12
*1540 FILLER_35_125
*1541 FILLER_35_137
*1542 FILLER_35_141
*1543 FILLER_35_148
*1544 FILLER_35_160
*1545 FILLER_35_169
*1546 FILLER_35_175
*1547 FILLER_35_202
*1548 FILLER_35_214
*1549 FILLER_35_222
*1550 FILLER_35_231
*1551 FILLER_35_24
*1552 FILLER_35_243
*1553 FILLER_35_255
*1554 FILLER_35_267
*1555 FILLER_35_278
*1556 FILLER_35_295
*1557 FILLER_35_307
*1558 FILLER_35_319
*1559 FILLER_35_331
*1560 FILLER_35_335
*1561 FILLER_35_337
*1562 FILLER_35_349
*1563 FILLER_35_36
*1564 FILLER_35_361
*1565 FILLER_35_373
*1566 FILLER_35_385
*1567 FILLER_35_391
*1568 FILLER_35_393
*1569 FILLER_35_405
*1570 FILLER_35_48
*1571 FILLER_35_57
*1572 FILLER_35_69
*1573 FILLER_35_81
*1574 FILLER_35_93
*1575 FILLER_36_116
*1576 FILLER_36_128
*1577 FILLER_36_136
*1578 FILLER_36_141
*1579 FILLER_36_150
*1580 FILLER_36_156
*1581 FILLER_36_160
*1582 FILLER_36_172
*1583 FILLER_36_184
*1584 FILLER_36_19
*1585 FILLER_36_197
*1586 FILLER_36_201
*1587 FILLER_36_207
*1588 FILLER_36_242
*1589 FILLER_36_250
*1590 FILLER_36_253
*1591 FILLER_36_265
*1592 FILLER_36_27
*1593 FILLER_36_271
*1594 FILLER_36_279
*1595 FILLER_36_29
*1596 FILLER_36_291
*1597 FILLER_36_303
*1598 FILLER_36_307
*1599 FILLER_36_309
*1600 FILLER_36_321
*1601 FILLER_36_333
*1602 FILLER_36_345
*1603 FILLER_36_357
*1604 FILLER_36_363
*1605 FILLER_36_365
*1606 FILLER_36_377
*1607 FILLER_36_389
*1608 FILLER_36_401
*1609 FILLER_36_41
*1610 FILLER_36_53
*1611 FILLER_36_65
*1612 FILLER_36_7
*1613 FILLER_36_77
*1614 FILLER_36_83
*1615 FILLER_36_85
*1616 FILLER_36_97
*1617 FILLER_37_106
*1618 FILLER_37_113
*1619 FILLER_37_125
*1620 FILLER_37_133
*1621 FILLER_37_138
*1622 FILLER_37_15
*1623 FILLER_37_151
*1624 FILLER_37_163
*1625 FILLER_37_167
*1626 FILLER_37_169
*1627 FILLER_37_181
*1628 FILLER_37_193
*1629 FILLER_37_205
*1630 FILLER_37_217
*1631 FILLER_37_223
*1632 FILLER_37_225
*1633 FILLER_37_233
*1634 FILLER_37_243
*1635 FILLER_37_255
*1636 FILLER_37_267
*1637 FILLER_37_27
*1638 FILLER_37_279
*1639 FILLER_37_281
*1640 FILLER_37_293
*1641 FILLER_37_3
*1642 FILLER_37_305
*1643 FILLER_37_317
*1644 FILLER_37_329
*1645 FILLER_37_335
*1646 FILLER_37_337
*1647 FILLER_37_349
*1648 FILLER_37_361
*1649 FILLER_37_373
*1650 FILLER_37_385
*1651 FILLER_37_39
*1652 FILLER_37_391
*1653 FILLER_37_393
*1654 FILLER_37_397
*1655 FILLER_37_51
*1656 FILLER_37_55
*1657 FILLER_37_57
*1658 FILLER_37_69
*1659 FILLER_37_81
*1660 FILLER_37_93
*1661 FILLER_37_97
*1662 FILLER_38_117
*1663 FILLER_38_123
*1664 FILLER_38_131
*1665 FILLER_38_139
*1666 FILLER_38_141
*1667 FILLER_38_15
*1668 FILLER_38_153
*1669 FILLER_38_165
*1670 FILLER_38_177
*1671 FILLER_38_189
*1672 FILLER_38_195
*1673 FILLER_38_197
*1674 FILLER_38_209
*1675 FILLER_38_221
*1676 FILLER_38_233
*1677 FILLER_38_245
*1678 FILLER_38_251
*1679 FILLER_38_253
*1680 FILLER_38_265
*1681 FILLER_38_27
*1682 FILLER_38_277
*1683 FILLER_38_289
*1684 FILLER_38_29
*1685 FILLER_38_3
*1686 FILLER_38_301
*1687 FILLER_38_307
*1688 FILLER_38_309
*1689 FILLER_38_321
*1690 FILLER_38_333
*1691 FILLER_38_345
*1692 FILLER_38_357
*1693 FILLER_38_363
*1694 FILLER_38_365
*1695 FILLER_38_377
*1696 FILLER_38_389
*1697 FILLER_38_401
*1698 FILLER_38_41
*1699 FILLER_38_53
*1700 FILLER_38_65
*1701 FILLER_38_77
*1702 FILLER_38_83
*1703 FILLER_38_85
*1704 FILLER_38_98
*1705 FILLER_39_105
*1706 FILLER_39_111
*1707 FILLER_39_113
*1708 FILLER_39_125
*1709 FILLER_39_137
*1710 FILLER_39_149
*1711 FILLER_39_15
*1712 FILLER_39_161
*1713 FILLER_39_167
*1714 FILLER_39_169
*1715 FILLER_39_194
*1716 FILLER_39_206
*1717 FILLER_39_218
*1718 FILLER_39_225
*1719 FILLER_39_237
*1720 FILLER_39_249
*1721 FILLER_39_261
*1722 FILLER_39_27