*SPEF "ieee 1481-1999"
*DESIGN "mult4_SARSA_RUIDO_e9_SarsaNada_e6_SARSA_RUIDO_e9_SARSA_RUIDO_e9"
*DATE "14:29:23 Tuesday September 16, 2025"
*VENDOR "The OpenROAD Project"
*PROGRAM "OpenROAD"
*VERSION "edf00dff99f6c40d67a30c0e22a8191c5d2ed9d6"
*DESIGN_FLOW "NAME_SCOPE LOCAL" "PIN_CAP NONE"
*DIVIDER /
*DELIMITER :
*BUS_DELIMITER []
*T_UNIT 1 NS
*C_UNIT 1 PF
*R_UNIT 1 OHM
*L_UNIT 1 HENRY

*NAME_MAP
*1 A[0]
*2 A[1]
*3 A[2]
*4 A[3]
*5 B[0]
*6 B[1]
*7 B[2]
*8 B[3]
*9 P[0]
*10 P[1]
*11 P[2]
*12 P[3]
*13 P[4]
*14 P[5]
*15 P[6]
*16 P[7]
*19 _00_
*20 _01_
*21 _02_
*22 _03_
*23 _04_
*24 _05_
*25 _06_
*26 _07_
*27 _08_
*28 _09_
*29 _10_
*30 _11_
*31 _12_
*32 _13_
*33 _14_
*34 _15_
*35 _16_
*36 _17_
*37 _18_
*38 _19_
*39 _20_
*40 _21_
*41 _22_
*42 _23_
*43 _24_
*44 _25_
*45 _26_
*46 _27_
*47 _28_
*48 _29_
*49 _30_
*50 mul_ll\.pp1
*51 mul_ll\.pp2
*52 net1
*53 net10
*54 net11
*55 net12
*56 net13
*57 net14
*58 net15
*59 net16
*60 net2
*61 net3
*62 net4
*63 net5
*64 net6
*65 net7
*66 net8
*67 net9
*68 FILLER_0_15
*69 FILLER_0_27
*70 FILLER_0_29
*71 FILLER_0_3
*72 FILLER_0_35
*73 FILLER_0_47
*74 FILLER_0_55
*75 FILLER_0_57
*76 FILLER_0_69
*77 FILLER_1_19
*78 FILLER_1_29
*79 FILLER_1_41
*80 FILLER_1_53
*81 FILLER_1_57
*82 FILLER_1_7
*83 FILLER_1_70
*84 FILLER_1_76
*85 FILLER_2_11
*86 FILLER_2_17
*87 FILLER_2_21
*88 FILLER_2_36
*89 FILLER_2_48
*90 FILLER_2_54
*91 FILLER_2_7
*92 FILLER_2_73
*93 FILLER_3_11
*94 FILLER_3_20
*95 FILLER_3_3
*96 FILLER_3_32
*97 FILLER_3_44
*98 FILLER_3_55
*99 FILLER_3_70
*100 FILLER_3_78
*101 FILLER_4_11
*102 FILLER_4_17
*103 FILLER_4_25
*104 FILLER_4_29
*105 FILLER_4_41
*106 FILLER_4_45
*107 FILLER_4_53
*108 FILLER_4_59
*109 FILLER_4_7
*110 FILLER_4_71
*111 FILLER_4_79
*112 FILLER_5_33
*113 FILLER_5_54
*114 FILLER_5_6
*115 FILLER_5_66
*116 FILLER_5_78
*117 FILLER_6_18
*118 FILLER_6_26
*119 FILLER_6_29
*120 FILLER_6_37
*121 FILLER_6_58
*122 FILLER_6_70
*123 FILLER_6_78
*124 FILLER_7_20
*125 FILLER_7_29
*126 FILLER_7_3
*127 FILLER_7_37
*128 FILLER_7_50
*129 FILLER_7_57
*130 FILLER_7_70
*131 FILLER_7_76
*132 FILLER_8_11
*133 FILLER_8_23
*134 FILLER_8_27
*135 FILLER_8_29
*136 FILLER_8_37
*137 FILLER_8_47
*138 FILLER_8_74
*139 FILLER_8_80
*140 FILLER_9_16
*141 FILLER_9_29
*142 FILLER_9_41
*143 FILLER_9_45
*144 FILLER_9_51
*145 FILLER_9_55
*146 FILLER_9_57
*147 FILLER_9_63
*148 FILLER_9_75
*149 PHY_EDGE_ROW_0_Left_10
*150 PHY_EDGE_ROW_0_Right_0
*151 PHY_EDGE_ROW_1_Left_11
*152 PHY_EDGE_ROW_1_Right_1
*153 PHY_EDGE_ROW_2_Left_12
*154 PHY_EDGE_ROW_2_Right_2
*155 PHY_EDGE_ROW_3_Left_13
*156 PHY_EDGE_ROW_3_Right_3
*157 PHY_EDGE_ROW_4_Left_14
*158 PHY_EDGE_ROW_4_Right_4
*159 PHY_EDGE_ROW_5_Left_15
*160 PHY_EDGE_ROW_5_Right_5
*161 PHY_EDGE_ROW_6_Left_16
*162 PHY_EDGE_ROW_6_Right_6
*163 PHY_EDGE_ROW_7_Left_17
*164 PHY_EDGE_ROW_7_Right_7
*165 PHY_EDGE_ROW_8_Left_18
*166 PHY_EDGE_ROW_8_Right_8
*167 PHY_EDGE_ROW_9_Left_19
*168 PHY_EDGE_ROW_9_Right_9
*169 TAP_TAPCELL_ROW_0_20
*170 TAP_TAPCELL_ROW_0_21
*171 TAP_TAPCELL_ROW_1_22
*172 TAP_TAPCELL_ROW_2_23
*173 TAP_TAPCELL_ROW_3_24
*174 TAP_TAPCELL_ROW_4_25
*175 TAP_TAPCELL_ROW_5_26
*176 TAP_TAPCELL_ROW_6_27
*177 TAP_TAPCELL_ROW_7_28
*178 TAP_TAPCELL_ROW_8_29
*179 TAP_TAPCELL_ROW_9_30
*180 TAP_TAPCELL_ROW_9_31
*181 _31_
*182 _32_
*183 _33_
*184 _34_
*185 _35_
*186 _36_
*187 _37_
*188 _38_
*189 _39_
*190 _40_
*191 _41_
*192 _42_
*193 _43_
*194 _44_
*195 _45_
*196 _46_
*197 _47_
*198 _48_
*199 _49_
*200 _50_
*201 _51_
*202 _52_
*203 _53_
*204 _54_
*205 _55_
*206 _56_
*207 _57_
*208 _58_
*209 _59_
*210 _60_
*211 _61_
*212 _62_
*213 _63_
*214 _64_
*215 _65_
*216 _66_
*217 _67_
*218 _68_
*219 _69_
*220 _70_
*221 _71_
*222 input1
*223 input2
*224 input3
*225 input4
*226 input5
*227 input6
*228 input7
*229 input8
*230 output10
*231 output11
*232 output12
*233 output13
*234 output14
*235 output15
*236 output16
*237 output9

*PORTS
A[0] I
A[1] I
A[2] I
A[3] I
B[0] I
B[1] I
B[2] I
B[3] I
P[0] O
P[1] O
P[2] O
P[3] O
P[4] O
P[5] O
P[6] O
P[7] O

*D_NET *1 0.00174856
*CONN
*P A[0] I
*I *222:A I *D sky130_fd_sc_hd__buf_1
*CAP
1 A[0] 0.000728994
2 *222:A 0.000728994
3 *222:A P[0] 3.97171e-05
4 *222:A *227:A 0.000108192
5 *222:A *64:10 0.000142661
*RES
1 A[0] *222:A 14.6902 
*END

*D_NET *2 0.000815938
*CONN
*P A[1] I
*I *223:A I *D sky130_fd_sc_hd__clkbuf_2
*CAP
1 A[1] 0.000357317
2 *223:A 0.000357317
3 *223:A P[1] 0
4 *223:A *182:B 4.13879e-05
5 *223:A *226:A 2.85068e-05
6 *223:A *229:A 3.14094e-05
7 *223:A *64:18 0
*RES
1 A[1] *223:A 5.3931 
*END

*D_NET *3 0.000614194
*CONN
*P A[2] I
*I *224:A I *D sky130_fd_sc_hd__clkbuf_2
*CAP
1 A[2] 0.000293597
2 *224:A 0.000293597
3 *224:A P[2] 2.69997e-05
*RES
1 A[2] *224:A 7.4343 
*END

*D_NET *4 0.000885465
*CONN
*P A[3] I
*I *225:A I *D sky130_fd_sc_hd__buf_1
*CAP
1 A[3] 0.000442733
2 *225:A 0.000442733
3 *225:A P[7] 0
4 *225:A *236:A 0
*RES
1 A[3] *225:A 11.37 
*END

*D_NET *5 0.000623243
*CONN
*P B[0] I
*I *226:A I *D sky130_fd_sc_hd__clkbuf_1
*CAP
1 B[0] 0.00028255
2 *226:A 0.00028255
3 *226:A *182:B 0
4 *226:A *228:A 2.96366e-05
5 *226:A *229:A 0
6 *223:A *226:A 2.85068e-05
*RES
1 B[0] *226:A 7.5993 
*END

*D_NET *6 0.000921504
*CONN
*P B[1] I
*I *227:A I *D sky130_fd_sc_hd__dlymetal6s2s_1
*CAP
1 B[1] 0.000392402
2 *227:A 0.000392402
3 *227:A P[0] 2.85068e-05
4 *227:A P[1] 0
5 *222:A *227:A 0.000108192
*RES
1 B[1] *227:A 9.3843 
*END

*D_NET *7 0.000679924
*CONN
*P B[2] I
*I *228:A I *D sky130_fd_sc_hd__clkbuf_2
*CAP
1 B[2] 0.000310325
2 *228:A 0.000310325
3 *228:A P[2] 2.96366e-05
4 *226:A *228:A 2.96366e-05
*RES
1 B[2] *228:A 7.9443 
*END

*D_NET *8 0.000724288
*CONN
*P B[3] I
*I *229:A I *D sky130_fd_sc_hd__clkbuf_2
*CAP
1 B[3] 0.000335194
2 *229:A 0.000335194
3 *229:A P[1] 2.24901e-05
4 *229:A *182:B 0
5 *223:A *229:A 3.14094e-05
6 *226:A *229:A 0
*RES
1 B[3] *229:A 8.4543 
*END

*D_NET *9 0.00105403
*CONN
*P P[0] O
*I *237:X O *D sky130_fd_sc_hd__buf_2
*CAP
1 P[0] 0.00043234
2 *237:X 0.00043234
3 P[0] P[1] 0.000121125
4 P[0] *64:10 0
5 P[0] *64:12 0
6 P[0] *64:18 0
7 *222:A P[0] 3.97171e-05
8 *227:A P[0] 2.85068e-05
*RES
1 *237:X P[0] 8.8985 
*END

*D_NET *10 0.000923371
*CONN
*P P[1] O
*I *230:X O *D sky130_fd_sc_hd__buf_2
*CAP
1 P[1] 0.0003294
2 *230:X 0.0003294
3 P[1] *237:A 0.000120955
4 P[0] P[1] 0.000121125
5 *223:A P[1] 0
6 *227:A P[1] 0
7 *229:A P[1] 2.24901e-05
*RES
1 *230:X P[1] 8.98043 
*END

*D_NET *11 0.000600341
*CONN
*P P[2] O
*I *231:X O *D sky130_fd_sc_hd__buf_2
*CAP
1 P[2] 0.000271852
2 *231:X 0.000271852
3 *224:A P[2] 2.69997e-05
4 *228:A P[2] 2.96366e-05
*RES
1 *231:X P[2] 7.1793 
*END

*D_NET *12 0.000877057
*CONN
*P P[3] O
*I *232:X O *D sky130_fd_sc_hd__buf_2
*CAP
1 P[3] 0.000438528
2 *232:X 0.000438528
*RES
1 *232:X P[3] 10.53 
*END

*D_NET *13 0.000471537
*CONN
*P P[4] O
*I *233:X O *D sky130_fd_sc_hd__buf_2
*CAP
1 P[4] 0.00019345
2 *233:X 0.00019345
3 P[4] P[5] 8.4638e-05
*RES
1 *233:X P[4] 4.90503 
*END

*D_NET *14 0.000490566
*CONN
*P P[5] O
*I *234:X O *D sky130_fd_sc_hd__buf_2
*CAP
1 P[5] 0.000202964
2 *234:X 0.000202964
3 P[4] P[5] 8.4638e-05
*RES
1 *234:X P[5] 5.16003 
*END

*D_NET *15 0.000444803
*CONN
*P P[6] O
*I *235:X O *D sky130_fd_sc_hd__buf_2
*CAP
1 P[6] 0.000222401
2 *235:X 0.000222401
*RES
1 *235:X P[6] 4.90503 
*END

*D_NET *16 0.00085605
*CONN
*P P[7] O
*I *236:X O *D sky130_fd_sc_hd__buf_2
*CAP
1 P[7] 0.000428025
2 *236:X 0.000428025
3 *225:A P[7] 0
*RES
1 *236:X P[7] 11.205 
*END

*D_NET *19 0.000570485
*CONN
*I *185:A I *D sky130_fd_sc_hd__or2_1
*I *186:A I *D sky130_fd_sc_hd__nand2_1
*I *183:X O *D sky130_fd_sc_hd__and2_1
*CAP
1 *185:A 8.6238e-05
2 *186:A 0
3 *183:X 9.71913e-05
4 *19:12 0.000183429
5 *185:A *185:B 4.49879e-05
6 *185:A *187:A 2.20732e-05
7 *19:12 *20:12 6.28765e-05
8 *19:12 *61:12 4.61744e-05
9 *19:12 *61:23 2.75145e-05
*RES
1 *183:X *19:12 7.43 
2 *19:12 *186:A 1.6 
3 *19:12 *185:A 3.1 
*END

*D_NET *20 0.000797223
*CONN
*I *186:B I *D sky130_fd_sc_hd__nand2_1
*I *185:B I *D sky130_fd_sc_hd__or2_1
*I *184:X O *D sky130_fd_sc_hd__mux2_1
*CAP
1 *186:B 0
2 *185:B 9.3841e-05
3 *184:X 0.000234165
4 *20:12 0.000328006
5 *185:B *187:A 5.83121e-06
6 *20:12 *183:A 0
7 *20:12 *37:8 0
8 *20:12 *61:12 0
9 *20:12 *61:23 0
10 *20:12 *64:22 2.75145e-05
11 *20:12 *65:10 0
12 *185:A *185:B 4.49879e-05
13 *19:12 *20:12 6.28765e-05
*RES
1 *184:X *20:12 9.47 
2 *20:12 *185:B 3.46 
3 *20:12 *186:B 1.6 
*END

*D_NET *21 0.000505734
*CONN
*I *187:A I *D sky130_fd_sc_hd__and2_1
*I *185:X O *D sky130_fd_sc_hd__or2_1
*CAP
1 *187:A 0.00017339
2 *185:X 0.00017339
3 *187:A *22:8 6.5525e-05
4 *187:A *61:12 6.5525e-05
5 *185:A *187:A 2.20732e-05
6 *185:B *187:A 5.83121e-06
*RES
1 *185:X *187:A 10.065 
*END

*D_NET *22 0.00185289
*CONN
*I *204:A I *D sky130_fd_sc_hd__or3b_1
*I *187:B I *D sky130_fd_sc_hd__and2_1
*I *218:A I *D sky130_fd_sc_hd__xnor2_1
*I *186:Y O *D sky130_fd_sc_hd__nand2_1
*CAP
1 *204:A 0.000276189
2 *187:B 0.000102824
3 *218:A 0.000274735
4 *186:Y 8.94947e-05
5 *22:21 0.000379012
6 *22:8 0.00036423
7 *204:A *203:B 4.82863e-05
8 *204:A *204:B 7.35813e-05
9 *204:A *204:C_N 0.000160641
10 *204:A *218:B 1.83756e-05
11 *218:A *203:A_N 0
12 *218:A *218:B 0
13 *218:A *61:12 0
14 *22:8 *204:C_N 0
15 *22:8 *37:8 0
16 *22:8 *61:12 0
17 *187:A *22:8 6.5525e-05
*RES
1 *186:Y *22:8 5.235 
2 *22:8 *218:A 7.665 
3 *22:8 *22:21 2 
4 *22:21 *187:B 3.085 
5 *22:21 *204:A 6.895 
*END

*D_NET *23 0.00207311
*CONN
*I *196:B1_N I *D sky130_fd_sc_hd__a21bo_1
*I *195:A I *D sky130_fd_sc_hd__or3b_1
*I *188:Y O *D sky130_fd_sc_hd__nand2_1
*CAP
1 *196:B1_N 0.000153879
2 *195:A 0.000188882
3 *188:Y 0.000244269
4 *23:6 0.00058703
5 *195:A *195:B 0.000139245
6 *195:A *195:C_N 8.49205e-05
7 *195:A *27:10 0.000127373
8 *195:A *29:12 8.08153e-06
9 *195:A *31:10 0.000163339
10 *195:A *43:10 0
11 *196:B1_N *196:A1 1.19928e-05
12 *196:B1_N *196:A2 2.49909e-05
13 *23:6 *193:A 0.000124007
14 *23:6 *193:B 9.76407e-06
15 *23:6 *196:A2 2.05056e-05
16 *23:6 *31:10 4.82919e-05
17 *23:6 *60:41 7.05373e-05
18 *23:6 *60:52 6.60042e-05
*RES
1 *188:Y *23:6 5.845 
2 *23:6 *195:A 10.325 
3 *23:6 *196:B1_N 3.775 
*END

*D_NET *24 0.00317274
*CONN
*I *212:D I *D sky130_fd_sc_hd__and4_1
*I *213:B1 I *D sky130_fd_sc_hd__a22o_1
*I *193:A I *D sky130_fd_sc_hd__or4bb_1
*I *192:A_N I *D sky130_fd_sc_hd__and4bb_1
*I *189:X O *D sky130_fd_sc_hd__and4_1
*CAP
1 *212:D 0.000128961
2 *213:B1 0
3 *193:A 0.000100988
4 *192:A_N 0
5 *189:X 0.00027218
6 *24:30 0.000205342
7 *24:15 0.000374901
8 *24:6 0.000469711
9 *193:A *194:A3 7.21296e-06
10 *193:A *196:A2 8.49205e-05
11 *193:A *27:10 7.17811e-05
12 *193:A *29:10 7.71016e-05
13 *193:A *29:12 1.52184e-05
14 *212:D *212:A 0.000215888
15 *212:D *212:B 2.0514e-05
16 *212:D *212:C 0.000239813
17 *212:D *214:B 3.26889e-05
18 *212:D *46:8 2.30292e-05
19 *212:D *66:72 2.49909e-05
20 *24:6 *66:29 0.000228613
21 *24:6 *66:44 5.93408e-05
22 *24:15 *27:10 4.82863e-05
23 *24:15 *66:44 4.88478e-05
24 *24:15 *66:57 8.20232e-05
25 *24:30 *194:A3 0.000123075
26 *24:30 *29:10 8.60912e-05
27 *24:30 *66:63 7.21296e-06
28 *23:6 *193:A 0.000124007
*RES
1 *189:X *24:6 6.19 
2 *24:6 *192:A_N 1.6 
3 *24:6 *24:15 5.21 
4 *24:15 *193:A 6.63 
5 *24:15 *24:30 4.4 
6 *24:30 *213:B1 1.6 
7 *24:30 *212:D 5.53 
*END

*D_NET *25 0.00641448
*CONN
*I *202:B1 I *D sky130_fd_sc_hd__a22o_1
*I *198:C I *D sky130_fd_sc_hd__and4_1
*I *208:S I *D sky130_fd_sc_hd__mux2_1
*I *194:A3 I *D sky130_fd_sc_hd__a32o_1
*I *190:Y O *D sky130_fd_sc_hd__nand4_2
*CAP
1 *202:B1 0
2 *198:C 5.97914e-05
3 *208:S 0.000149204
4 *194:A3 0.000580243
5 *190:Y 0.000339231
6 *25:24 0.00128394
7 *25:16 0.000842847
8 *25:10 0.00056779
9 *194:A3 *194:A2 4.30166e-05
10 *194:A3 *194:B1 3.13354e-05
11 *194:A3 *195:B 3.09233e-05
12 *194:A3 *212:B 1.63929e-05
13 *194:A3 *27:10 0.000286642
14 *194:A3 *61:61 4.82919e-05
15 *194:A3 *62:39 0.000113153
16 *198:C *198:A 0.000126054
17 *198:C *61:36 3.00381e-05
18 *198:C *61:43 6.73895e-05
19 *208:S *208:A0 0.000188727
20 *208:S *208:A1 1.61831e-05
21 *208:S *43:10 7.49327e-05
22 *25:10 *32:12 5.7344e-05
23 *25:10 *61:23 5.53249e-06
24 *25:10 *61:36 2.42236e-05
25 *25:10 *65:19 0
26 *25:10 *65:32 0
27 *25:10 *66:22 0.000239807
28 *25:16 *198:A 0.000379961
29 *25:16 *32:12 5.53249e-06
30 *25:16 *33:10 4.82863e-05
31 *25:16 *61:23 2.7881e-05
32 *25:16 *64:22 4.82919e-05
33 *25:16 *65:10 0
34 *25:24 *207:B 3.20366e-05
35 *25:24 *208:A0 9.97354e-05
36 *25:24 *209:A1 0.000344632
37 *25:24 *43:10 4.82919e-05
38 *25:24 *61:43 1.44453e-05
39 *25:24 *61:49 1.20584e-05
40 *193:A *194:A3 7.21296e-06
41 *24:30 *194:A3 0.000123075
*RES
1 *190:Y *25:10 9.195 
2 *25:10 *25:16 6.86 
3 *25:16 *25:24 8.085 
4 *25:24 *194:A3 16.325 
5 *25:24 *208:S 5.155 
6 *25:16 *198:C 3.7 
7 *25:10 *202:B1 3.6 
*END

*D_NET *26 0.00166965
*CONN
*I *192:B_N I *D sky130_fd_sc_hd__and4bb_1
*I *193:B I *D sky130_fd_sc_hd__or4bb_1
*I *191:Y O *D sky130_fd_sc_hd__nand2_1
*CAP
1 *192:B_N 1.02819e-05
2 *193:B 0.000248073
3 *191:Y 0.000265099
4 *26:10 0.000523454
5 *192:B_N *189:C 4.77757e-05
6 *192:B_N *66:44 4.77757e-05
7 *193:B *193:D_N 4.4908e-05
8 *193:B *60:41 4.8854e-05
9 *193:B *60:52 6.80182e-05
10 *193:B *65:58 0.000159964
11 *26:10 *191:A 0.000151528
12 *26:10 *194:B1 2.10871e-05
13 *26:10 *62:16 2.30682e-05
14 *23:6 *193:B 9.76407e-06
*RES
1 *191:Y *26:10 7.905 
2 *26:10 *193:B 7.665 
3 *26:10 *192:B_N 4.05 
*END

*D_NET *27 0.00135143
*CONN
*I *209:B1 I *D sky130_fd_sc_hd__a31oi_2
*I *195:B I *D sky130_fd_sc_hd__or3b_1
*I *192:X O *D sky130_fd_sc_hd__and4bb_1
*CAP
1 *209:B1 0
2 *195:B 8.91606e-05
3 *192:X 0.000203277
4 *27:10 0.000292438
5 *195:B *195:C_N 2.75229e-05
6 *195:B *43:10 3.47837e-05
7 *193:A *27:10 7.17811e-05
8 *194:A3 *195:B 3.09233e-05
9 *194:A3 *27:10 0.000286642
10 *195:A *195:B 0.000139245
11 *195:A *27:10 0.000127373
12 *24:15 *27:10 4.82863e-05
*RES
1 *192:X *27:10 8.16 
2 *27:10 *195:B 5.685 
3 *27:10 *209:B1 3.6 
*END

*D_NET *28 0.000356768
*CONN
*I *196:A1 I *D sky130_fd_sc_hd__a21bo_1
*I *193:X O *D sky130_fd_sc_hd__or4bb_1
*CAP
1 *196:A1 0.000111222
2 *193:X 0.000111222
3 *196:A1 *196:A2 0.000122331
4 *196:B1_N *196:A1 1.19928e-05
*RES
1 *193:X *196:A1 5.045 
*END

*D_NET *29 0.00257719
*CONN
*I *196:A2 I *D sky130_fd_sc_hd__a21bo_1
*I *209:A3 I *D sky130_fd_sc_hd__a31oi_2
*I *195:C_N I *D sky130_fd_sc_hd__or3b_1
*I *194:X O *D sky130_fd_sc_hd__a32o_1
*CAP
1 *196:A2 5.07591e-05
2 *209:A3 4.08055e-05
3 *195:C_N 0.000217724
4 *194:X 0.000162295
5 *29:12 0.00032127
6 *29:10 0.000275795
7 *195:C_N *30:12 3.64998e-06
8 *195:C_N *31:10 0.000202095
9 *195:C_N *61:61 2.59981e-05
10 *209:A3 *208:A0 9.406e-05
11 *209:A3 *208:A1 0.000121817
12 *209:A3 *61:49 1.75875e-05
13 *209:A3 *61:53 2.61449e-05
14 *29:10 *194:A2 4.66108e-05
15 *29:10 *61:61 9.05649e-05
16 *29:10 *66:63 0.000116853
17 *29:10 *66:72 3.57349e-05
18 *29:12 *31:10 9.30787e-05
19 *29:12 *61:61 8.26614e-05
20 *193:A *196:A2 8.49205e-05
21 *193:A *29:10 7.71016e-05
22 *193:A *29:12 1.52184e-05
23 *195:A *195:C_N 8.49205e-05
24 *195:A *29:12 8.08153e-06
25 *195:B *195:C_N 2.75229e-05
26 *196:A1 *196:A2 0.000122331
27 *196:B1_N *196:A2 2.49909e-05
28 *23:6 *196:A2 2.05056e-05
29 *24:30 *29:10 8.60912e-05
*RES
1 *194:X *29:10 7.815 
2 *29:10 *29:12 1.89 
3 *29:12 *195:C_N 7.845 
4 *29:12 *209:A3 5.1 
5 *29:10 *196:A2 5.085 
*END

*D_NET *30 0.000528604
*CONN
*I *199:A I *D sky130_fd_sc_hd__and3_1
*I *200:A1 I *D sky130_fd_sc_hd__a21oi_1
*I *195:X O *D sky130_fd_sc_hd__or3b_1
*CAP
1 *199:A 7.57738e-05
2 *200:A1 0
3 *195:X 0.000119395
4 *30:12 0.000195168
5 *199:A *199:C 6.39308e-05
6 *30:12 *31:10 7.06865e-05
7 *195:C_N *30:12 3.64998e-06
*RES
1 *195:X *30:12 7.265 
2 *30:12 *200:A1 1.6 
3 *30:12 *199:A 2.86 
*END

*D_NET *31 0.00156456
*CONN
*I *200:A2 I *D sky130_fd_sc_hd__a21oi_1
*I *199:B I *D sky130_fd_sc_hd__and3_1
*I *196:X O *D sky130_fd_sc_hd__a21bo_1
*CAP
1 *200:A2 0
2 *199:B 0.000149036
3 *196:X 0.000310464
4 *31:10 0.0004595
5 *199:B *199:C 6.38814e-05
6 *199:B *210:B 0
7 *199:B *215:A1 0
8 *199:B *35:14 4.18603e-06
9 *31:10 *210:B 0
10 *195:A *31:10 0.000163339
11 *195:C_N *31:10 0.000202095
12 *23:6 *31:10 4.82919e-05
13 *29:12 *31:10 9.30787e-05
14 *30:12 *31:10 7.06865e-05
*RES
1 *196:X *31:10 9.51 
2 *31:10 *199:B 5.61 
3 *31:10 *200:A2 3.6 
*END

*D_NET *32 0.00106857
*CONN
*I *198:D I *D sky130_fd_sc_hd__and4_1
*I *202:B2 I *D sky130_fd_sc_hd__a22o_1
*I *197:X O *D sky130_fd_sc_hd__a22o_1
*CAP
1 *198:D 0.000137062
2 *202:B2 0
3 *197:X 0.000138969
4 *32:12 0.000276031
5 *198:D *198:A 0.000141323
6 *198:D *202:A1 4.00541e-06
7 *198:D *61:36 0.000201508
8 *198:D *64:22 7.22354e-05
9 *32:12 *60:41 3.45588e-05
10 *32:12 *65:10 0
11 *32:12 *65:19 0
12 *25:10 *32:12 5.7344e-05
13 *25:16 *32:12 5.53249e-06
*RES
1 *197:X *32:12 7.775 
2 *32:12 *202:B2 1.6 
3 *32:12 *198:D 5.17 
*END

*D_NET *33 0.00267137
*CONN
*I *199:C I *D sky130_fd_sc_hd__and3_1
*I *200:B1 I *D sky130_fd_sc_hd__a21oi_1
*I *204:B I *D sky130_fd_sc_hd__or3b_1
*I *203:A_N I *D sky130_fd_sc_hd__and2b_1
*I *198:X O *D sky130_fd_sc_hd__and4_1
*CAP
1 *199:C 0.000162848
2 *200:B1 0
3 *204:B 8.49259e-05
4 *203:A_N 6.29948e-05
5 *198:X 0.000172868
6 *33:34 0.000666957
7 *33:12 0.000229784
8 *33:10 0.00075884
9 *203:A_N *204:C_N 2.59981e-05
10 *203:A_N *37:8 1.71013e-05
11 *33:10 *37:8 0.000150623
12 *33:12 *37:8 8.87475e-05
13 *199:A *199:C 6.39308e-05
14 *199:B *199:C 6.38814e-05
15 *204:A *204:B 7.35813e-05
16 *218:A *203:A_N 0
17 *25:16 *33:10 4.82863e-05
*RES
1 *198:X *33:10 7.215 
2 *33:10 *33:12 1.89 
3 *33:12 *203:A_N 4.725 
4 *33:12 *204:B 4.74 
5 *33:10 *33:34 8.66 
6 *33:34 *200:B1 1.6 
7 *33:34 *199:C 5.275 
*END

*D_NET *34 0.00157576
*CONN
*I *201:A I *D sky130_fd_sc_hd__nor2_1
*I *216:A1 I *D sky130_fd_sc_hd__a21o_1
*I *206:B1_N I *D sky130_fd_sc_hd__o21ba_1
*I *199:X O *D sky130_fd_sc_hd__and3_1
*CAP
1 *201:A 0
2 *216:A1 0.000180627
3 *206:B1_N 1.08246e-05
4 *199:X 0.000142167
5 *34:18 0.000319549
6 *34:12 0.000270264
7 *216:A1 *205:A 9.80032e-06
8 *216:A1 *211:A 1.16578e-05
9 *216:A1 *211:B 5.2089e-05
10 *216:A1 *215:A1 0
11 *216:A1 *39:21 0
12 *216:A1 *49:10 3.25831e-05
13 *34:12 *205:B 0
14 *34:12 *210:B 5.83121e-06
15 *34:12 *215:A1 9.37731e-05
16 *34:12 *35:14 0
17 *34:18 *205:A 0.000315527
18 *34:18 *206:A1 4.99619e-05
19 *34:18 *35:14 5.14739e-05
20 *34:18 *39:21 2.96334e-05
*RES
1 *199:X *34:12 7.685 
2 *34:12 *34:18 3.93 
3 *34:18 *206:B1_N 2.02375 
4 *34:18 *216:A1 8.66 
5 *34:12 *201:A 1.6 
*END

*D_NET *35 0.00106344
*CONN
*I *206:A1 I *D sky130_fd_sc_hd__o21ba_1
*I *201:B I *D sky130_fd_sc_hd__nor2_1
*I *200:Y O *D sky130_fd_sc_hd__a21oi_1
*CAP
1 *206:A1 6.72493e-06
2 *201:B 0
3 *200:Y 0.000239419
4 *35:14 0.000246144
5 *206:A1 *39:21 2.30292e-05
6 *35:14 *39:6 0.000390466
7 *35:14 *39:21 5.2037e-05
8 *199:B *35:14 4.18603e-06
9 *34:12 *35:14 0
10 *34:18 *206:A1 4.99619e-05
11 *34:18 *35:14 5.14739e-05
*RES
1 *200:Y *35:14 11.24 
2 *35:14 *201:B 1.6 
3 *35:14 *206:A1 2.05 
*END

*D_NET *36 0.000967738
*CONN
*I *205:A I *D sky130_fd_sc_hd__xnor2_1
*I *201:Y O *D sky130_fd_sc_hd__nor2_1
*CAP
1 *205:A 0.00031829
2 *201:Y 0.00031829
3 *205:A *205:B 0
4 *205:A *211:A 5.83121e-06
5 *216:A1 *205:A 9.80032e-06
6 *34:18 *205:A 0.000315527
*RES
1 *201:Y *205:A 11.79 
*END

*D_NET *37 0.00121759
*CONN
*I *203:B I *D sky130_fd_sc_hd__and2b_1
*I *204:C_N I *D sky130_fd_sc_hd__or3b_1
*I *202:X O *D sky130_fd_sc_hd__a22o_1
*CAP
1 *203:B 2.55105e-05
2 *204:C_N 0.000103238
3 *202:X 0.000194858
4 *37:8 0.000323607
5 *37:8 *61:23 7.89767e-05
6 *203:A_N *204:C_N 2.59981e-05
7 *203:A_N *37:8 1.71013e-05
8 *204:A *203:B 4.82863e-05
9 *204:A *204:C_N 0.000160641
10 *20:12 *37:8 0
11 *22:8 *204:C_N 0
12 *22:8 *37:8 0
13 *33:10 *37:8 0.000150623
14 *33:12 *37:8 8.87475e-05
*RES
1 *202:X *37:8 8.805 
2 *37:8 *204:C_N 5.7 
3 *37:8 *203:B 4.05 
*END

*D_NET *38 0.000303585
*CONN
*I *218:B I *D sky130_fd_sc_hd__xnor2_1
*I *203:X O *D sky130_fd_sc_hd__and2b_1
*CAP
1 *218:B 0.000142605
2 *203:X 0.000142605
3 *204:A *218:B 1.83756e-05
4 *218:A *218:B 0
*RES
1 *203:X *218:B 9.285 
*END

*D_NET *39 0.00271082
*CONN
*I *206:A2 I *D sky130_fd_sc_hd__o21ba_1
*I *205:B I *D sky130_fd_sc_hd__xnor2_1
*I *215:A1 I *D sky130_fd_sc_hd__a21oi_1
*I *204:X O *D sky130_fd_sc_hd__or3b_1
*CAP
1 *206:A2 0
2 *205:B 0.00024237
3 *215:A1 0.000115669
4 *204:X 0.000461466
5 *39:21 0.000352908
6 *39:6 0.000687672
7 *215:A1 *210:A 0.000120186
8 *215:A1 *210:B 0.000141606
9 *199:B *215:A1 0
10 *205:A *205:B 0
11 *206:A1 *39:21 2.30292e-05
12 *216:A1 *215:A1 0
13 *216:A1 *39:21 0
14 *34:12 *205:B 0
15 *34:12 *215:A1 9.37731e-05
16 *34:18 *39:21 2.96334e-05
17 *35:14 *39:6 0.000390466
18 *35:14 *39:21 5.2037e-05
*RES
1 *204:X *39:6 8.95 
2 *39:6 *215:A1 8.765 
3 *39:6 *39:21 2.1 
4 *39:21 *205:B 9.23 
5 *39:21 *206:A2 1.6 
*END

*D_NET *40 0.000162682
*CONN
*I *211:A I *D sky130_fd_sc_hd__xnor2_1
*I *206:X O *D sky130_fd_sc_hd__o21ba_1
*CAP
1 *211:A 7.25966e-05
2 *206:X 7.25966e-05
3 *205:A *211:A 5.83121e-06
4 *216:A1 *211:A 1.16578e-05
*RES
1 *206:X *211:A 4.34 
*END

*D_NET *41 0.00163416
*CONN
*I *208:A1 I *D sky130_fd_sc_hd__mux2_1
*I *207:Y O *D sky130_fd_sc_hd__nand2_1
*CAP
1 *208:A1 0.000491821
2 *207:Y 0.000491821
3 *208:A1 *208:A0 0.000475264
4 *208:A1 *61:49 1.14169e-05
5 *208:A1 *61:53 2.58336e-05
6 *208:S *208:A1 1.61831e-05
7 *209:A3 *208:A1 0.000121817
*RES
1 *207:Y *208:A1 9.86 
*END

*D_NET *42 0.000733792
*CONN
*I *215:B1 I *D sky130_fd_sc_hd__a21oi_1
*I *210:A I *D sky130_fd_sc_hd__xor2_1
*I *208:X O *D sky130_fd_sc_hd__mux2_1
*CAP
1 *215:B1 3.13592e-05
2 *210:A 0.000122165
3 *208:X 7.09354e-05
4 *42:8 0.000224459
5 *210:A *210:B 7.6834e-05
6 *210:A *43:10 5.53249e-06
7 *210:A *49:10 0
8 *215:B1 *216:B1 7.00889e-06
9 *42:8 *43:10 7.53115e-05
10 *42:8 *49:10 0
11 *215:A1 *210:A 0.000120186
*RES
1 *208:X *42:8 5.235 
2 *42:8 *210:A 6.285 
3 *42:8 *215:B1 4.05 
*END

*D_NET *43 0.00107331
*CONN
*I *215:A2 I *D sky130_fd_sc_hd__a21oi_1
*I *210:B I *D sky130_fd_sc_hd__xor2_1
*I *209:Y O *D sky130_fd_sc_hd__a31oi_2
*CAP
1 *215:A2 0
2 *210:B 0.000167617
3 *209:Y 0.000137478
4 *43:10 0.000305095
5 *195:A *43:10 0
6 *195:B *43:10 3.47837e-05
7 *199:B *210:B 0
8 *208:S *43:10 7.49327e-05
9 *210:A *210:B 7.6834e-05
10 *210:A *43:10 5.53249e-06
11 *215:A1 *210:B 0.000141606
12 *25:24 *43:10 4.82919e-05
13 *31:10 *210:B 0
14 *34:12 *210:B 5.83121e-06
15 *42:8 *43:10 7.53115e-05
*RES
1 *209:Y *43:10 6.63 
2 *43:10 *210:B 6.885 
3 *43:10 *215:A2 3.6 
*END

*D_NET *44 0.000604499
*CONN
*I *211:B I *D sky130_fd_sc_hd__xnor2_1
*I *216:A2 I *D sky130_fd_sc_hd__a21o_1
*I *210:X O *D sky130_fd_sc_hd__xor2_1
*CAP
1 *211:B 0.000171264
2 *216:A2 5.02911e-05
3 *210:X 4.08925e-05
4 *44:6 0.000262448
5 *211:B *49:10 2.75145e-05
6 *216:A1 *211:B 5.2089e-05
*RES
1 *210:X *44:6 2.05 
2 *44:6 *216:A2 2.47 
3 *44:6 *211:B 8.12 
*END

*D_NET *45 0.000843529
*CONN
*I *214:A_N I *D sky130_fd_sc_hd__and2b_1
*I *219:B1 I *D sky130_fd_sc_hd__a21o_1
*I *212:X O *D sky130_fd_sc_hd__and4_1
*CAP
1 *214:A_N 0.000171847
2 *219:B1 2.38449e-05
3 *212:X 1.77416e-05
4 *45:6 0.000213434
5 *214:A_N *214:B 9.07709e-05
6 *214:A_N *219:A1 7.49327e-05
7 *214:A_N *219:A2 4.82919e-05
8 *219:B1 *214:B 0
9 *219:B1 *219:A1 0
10 *45:6 *214:B 7.60965e-05
11 *45:6 *219:A1 0.00012657
*RES
1 *212:X *45:6 2.74 
2 *45:6 *219:B1 1.96 
3 *45:6 *214:A_N 4.81 
*END

*D_NET *46 0.00164646
*CONN
*I *214:B I *D sky130_fd_sc_hd__and2b_1
*I *219:A1 I *D sky130_fd_sc_hd__a21o_1
*I *213:X O *D sky130_fd_sc_hd__a22o_1
*CAP
1 *214:B 0.000191777
2 *219:A1 0.00016489
3 *213:X 0.000105922
4 *46:8 0.000462589
5 *214:B *219:A2 4.82919e-05
6 *46:8 *212:B 8.65961e-05
7 *46:8 *212:C 0.000162311
8 *212:D *214:B 3.26889e-05
9 *212:D *46:8 2.30292e-05
10 *214:A_N *214:B 9.07709e-05
11 *214:A_N *219:A1 7.49327e-05
12 *219:B1 *214:B 0
13 *219:B1 *219:A1 0
14 *45:6 *214:B 7.60965e-05
15 *45:6 *219:A1 0.00012657
*RES
1 *213:X *46:8 4.135 
2 *46:8 *219:A1 4.135 
3 *46:8 *214:B 5.89 
*END

*D_NET *47 0.000371686
*CONN
*I *217:A I *D sky130_fd_sc_hd__xor2_1
*I *214:X O *D sky130_fd_sc_hd__and2b_1
*CAP
1 *217:A 0.000154014
2 *214:X 0.000154014
3 *217:A *219:A2 6.36578e-05
*RES
1 *214:X *217:A 9.72 
*END

*D_NET *48 0.000883654
*CONN
*I *216:B1 I *D sky130_fd_sc_hd__a21o_1
*I *215:Y O *D sky130_fd_sc_hd__a21oi_1
*CAP
1 *216:B1 0.000332903
2 *215:Y 0.000332903
3 *216:B1 *49:10 0.000210839
4 *215:B1 *216:B1 7.00889e-06
*RES
1 *215:Y *216:B1 12.81 
*END

*D_NET *49 0.001722
*CONN
*I *219:A2 I *D sky130_fd_sc_hd__a21o_1
*I *217:B I *D sky130_fd_sc_hd__xor2_1
*I *216:X O *D sky130_fd_sc_hd__a21o_1
*CAP
1 *219:A2 0.000130799
2 *217:B 0
3 *216:X 0.00051461
4 *49:10 0.000645409
5 *210:A *49:10 0
6 *211:B *49:10 2.75145e-05
7 *214:A_N *219:A2 4.82919e-05
8 *214:B *219:A2 4.82919e-05
9 *216:A1 *49:10 3.25831e-05
10 *216:B1 *49:10 0.000210839
11 *217:A *219:A2 6.36578e-05
12 *42:8 *49:10 0
*RES
1 *216:X *49:10 13.005 
2 *49:10 *217:B 3.6 
3 *49:10 *219:A2 6.195 
*END

*D_NET *50 0.00113344
*CONN
*I *220:A I *D sky130_fd_sc_hd__clkbuf_1
*I *182:X O *D sky130_fd_sc_hd__and2_1
*CAP
1 *220:A 0.000356512
2 *182:X 0.000356512
3 *220:A *182:A 8.65905e-05
4 *220:A *189:A 1.16578e-05
5 *220:A *52:10 0
6 *220:A *52:14 0
7 *220:A *52:16 0.000120655
8 *220:A *52:38 0.000201508
*RES
1 *182:X *220:A 12.135 
*END

*D_NET *51 0.000423408
*CONN
*I *221:A I *D sky130_fd_sc_hd__clkbuf_1
*I *181:X O *D sky130_fd_sc_hd__and2_1
*CAP
1 *221:A 0.000125761
2 *181:X 0.000125761
3 *221:A *230:A 9.52646e-05
4 *221:A *237:A 4.99619e-05
5 *221:A *64:56 2.66586e-05
*RES
1 *181:X *221:A 5.735 
*END

*D_NET *52 0.00233287
*CONN
*I *181:B I *D sky130_fd_sc_hd__and2_1
*I *189:A I *D sky130_fd_sc_hd__and4_1
*I *190:A I *D sky130_fd_sc_hd__nand4_2
*I *197:B2 I *D sky130_fd_sc_hd__a22o_1
*I *182:A I *D sky130_fd_sc_hd__and2_1
*I *222:X O *D sky130_fd_sc_hd__buf_1
*CAP
1 *181:B 0
2 *189:A 5.40727e-05
3 *190:A 1.90984e-05
4 *197:B2 8.11897e-05
5 *182:A 0.000119035
6 *222:X 0.000128066
7 *52:38 0.000105084
8 *52:16 0.000240481
9 *52:14 0.000157734
10 *52:10 0.00021363
11 *182:A *66:14 4.82919e-05
12 *182:A *66:22 1.34503e-05
13 *189:A *65:43 6.90876e-05
14 *190:A *190:B 4.00541e-06
15 *190:A *65:43 0
16 *197:B2 *64:18 0.00022921
17 *197:B2 *66:14 0.00011741
18 *52:10 *64:10 3.86607e-05
19 *52:10 *64:12 3.57846e-05
20 *52:14 *64:12 5.53249e-06
21 *52:14 *64:18 7.36562e-05
22 *52:16 *65:32 5.83121e-06
23 *52:16 *66:22 3.23284e-05
24 *52:38 *65:32 4.47209e-05
25 *52:38 *65:43 7.60965e-05
26 *220:A *182:A 8.65905e-05
27 *220:A *189:A 1.16578e-05
28 *220:A *52:10 0
29 *220:A *52:14 0
30 *220:A *52:16 0.000120655
31 *220:A *52:38 0.000201508
*RES
1 *222:X *52:10 5.685 
2 *52:10 *52:14 3.635 
3 *52:14 *52:16 1.14 
4 *52:16 *182:A 3.79 
5 *52:16 *197:B2 8.255 
6 *52:14 *52:38 1.83 
7 *52:38 *190:A 1.96 
8 *52:38 *189:A 2.74 
9 *52:10 *181:B 3.6 
*END

*D_NET *53 0.000686446
*CONN
*I *230:A I *D sky130_fd_sc_hd__buf_2
*I *221:X O *D sky130_fd_sc_hd__clkbuf_1
*CAP
1 *230:A 0.000154022
2 *221:X 0.000154022
3 *230:A *237:A 9.82706e-05
4 *230:A *64:56 0.000184866
5 *221:A *230:A 9.52646e-05
*RES
1 *221:X *230:A 7.58 
*END

*D_NET *54 0.000288579
*CONN
*I *231:A I *D sky130_fd_sc_hd__buf_2
*I *187:X O *D sky130_fd_sc_hd__and2_1
*CAP
1 *231:A 0.00014429
2 *187:X 0.00014429
*RES
1 *187:X *231:A 5.375 
*END

*D_NET *55 0.000404725
*CONN
*I *232:A I *D sky130_fd_sc_hd__buf_2
*I *218:Y O *D sky130_fd_sc_hd__xnor2_1
*CAP
1 *232:A 0.000202363
2 *218:Y 0.000202363
*RES
1 *218:Y *232:A 10.23 
*END

*D_NET *56 0.00045123
*CONN
*I *233:A I *D sky130_fd_sc_hd__buf_2
*I *205:Y O *D sky130_fd_sc_hd__xnor2_1
*CAP
1 *233:A 0.000225615
2 *205:Y 0.000225615
*RES
1 *205:Y *233:A 6.68 
*END

*D_NET *57 0.000313906
*CONN
*I *234:A I *D sky130_fd_sc_hd__buf_2
*I *211:Y O *D sky130_fd_sc_hd__xnor2_1
*CAP
1 *234:A 0.000156953
2 *211:Y 0.000156953
*RES
1 *211:Y *234:A 5.645 
*END

*D_NET *58 0.000421749
*CONN
*I *235:A I *D sky130_fd_sc_hd__buf_2
*I *217:X O *D sky130_fd_sc_hd__xor2_1
*CAP
1 *235:A 0.000210874
2 *217:X 0.000210874
*RES
1 *217:X *235:A 6.425 
*END

*D_NET *59 0.000200264
*CONN
*I *236:A I *D sky130_fd_sc_hd__buf_2
*I *219:X O *D sky130_fd_sc_hd__a21o_1
*CAP
1 *236:A 0.000100132
2 *219:X 0.000100132
3 *225:A *236:A 0
*RES
1 *219:X *236:A 8.835 
*END

*D_NET *60 0.00569312
*CONN
*I *194:A1 I *D sky130_fd_sc_hd__a32o_1
*I *192:C I *D sky130_fd_sc_hd__and4bb_1
*I *189:C I *D sky130_fd_sc_hd__and4_1
*I *193:C_N I *D sky130_fd_sc_hd__or4bb_1
*I *197:A2 I *D sky130_fd_sc_hd__a22o_1
*I *190:C I *D sky130_fd_sc_hd__nand4_2
*I *184:S I *D sky130_fd_sc_hd__mux2_1
*I *223:X O *D sky130_fd_sc_hd__clkbuf_2
*CAP
1 *194:A1 0.000152239
2 *192:C 3.75508e-05
3 *189:C 0.000507915
4 *193:C_N 0
5 *197:A2 2.08101e-05
6 *190:C 5.02018e-05
7 *184:S 0.000110771
8 *223:X 6.4172e-05
9 *60:54 0.000545465
10 *60:52 0.000281971
11 *60:41 0.000708061
12 *60:32 0.000657476
13 *60:8 0.000160973
14 *60:6 0.000122508
15 *184:S *182:B 0
16 *184:S *64:18 0.000137578
17 *184:S *65:10 6.26103e-05
18 *184:S *65:19 0.000107634
19 *184:S *65:32 2.14129e-05
20 *189:C *65:58 0.000541493
21 *189:C *66:44 5.54802e-05
22 *189:C *66:57 4.7003e-05
23 *190:C *64:18 0.00017688
24 *190:C *65:32 0.000162332
25 *192:C *66:57 1.91597e-05
26 *194:A1 *194:A2 8.49101e-05
27 *194:A1 *194:B1 2.14005e-05
28 *194:A1 *61:61 6.88421e-05
29 *197:A2 *197:B1 0
30 *60:6 *197:B1 7.43523e-05
31 *60:41 *188:B 4.66108e-05
32 *60:52 *193:D_N 9.23054e-05
33 *60:52 *61:61 0.000217258
34 *192:B_N *189:C 4.77757e-05
35 *193:B *60:41 4.8854e-05
36 *193:B *60:52 6.80182e-05
37 *23:6 *60:41 7.05373e-05
38 *23:6 *60:52 6.60042e-05
39 *32:12 *60:41 3.45588e-05
*RES
1 *223:X *60:6 2.74 
2 *60:6 *60:8 2 
3 *60:8 *184:S 6.555 
4 *60:8 *190:C 5.745 
5 *60:6 *60:32 0.795 
6 *60:32 *197:A2 1.96 
7 *60:32 *60:41 9.42 
8 *60:41 *193:C_N 1.6 
9 *60:41 *60:52 5.795 
10 *60:52 *60:54 2 
11 *60:54 *189:C 8.605 
12 *60:54 *192:C 2.05 
13 *60:52 *194:A1 5.97 
*END

*D_NET *61 0.00746193
*CONN
*I *188:B I *D sky130_fd_sc_hd__nand2_1
*I *207:A I *D sky130_fd_sc_hd__nand2_1
*I *208:A0 I *D sky130_fd_sc_hd__mux2_1
*I *209:A2 I *D sky130_fd_sc_hd__a31oi_2
*I *212:A I *D sky130_fd_sc_hd__and4_1
*I *213:B2 I *D sky130_fd_sc_hd__a22o_1
*I *198:B I *D sky130_fd_sc_hd__and4_1