* NGSPICE file created from mult8_2bits_1op_e16769.ext - technology: sky130A

* Black-box entry subcircuit for sky130_fd_sc_hd__tapvpwrvgnd_1 abstract view
.subckt sky130_fd_sc_hd__tapvpwrvgnd_1 VGND VPWR
.ends

* Black-box entry subcircuit for sky130_ef_sc_hd__decap_12 abstract view
.subckt sky130_ef_sc_hd__decap_12 VPWR VGND VPB VNB
.ends

* Black-box entry subcircuit for sky130_fd_sc_hd__nand2b_1 abstract view
.subckt sky130_fd_sc_hd__nand2b_1 A_N B VGND VNB VPB VPWR Y
.ends

* Black-box entry subcircuit for sky130_fd_sc_hd__fill_1 abstract view
.subckt sky130_fd_sc_hd__fill_1 VGND VNB VPB VPWR
.ends

* Black-box entry subcircuit for sky130_fd_sc_hd__a21boi_2 abstract view
.subckt sky130_fd_sc_hd__a21boi_2 A1 A2 B1_N VGND VNB VPB VPWR Y
.ends

* Black-box entry subcircuit for sky130_fd_sc_hd__nor2_1 abstract view
.subckt sky130_fd_sc_hd__nor2_1 A B VGND VNB VPB VPWR Y
.ends

* Black-box entry subcircuit for sky130_fd_sc_hd__buf_1 abstract view
.subckt sky130_fd_sc_hd__buf_1 A VGND VNB VPB VPWR X
.ends

* Black-box entry subcircuit for sky130_fd_sc_hd__a22o_1 abstract view
.subckt sky130_fd_sc_hd__a22o_1 A1 A2 B1 B2 VGND VNB VPB VPWR X
.ends

* Black-box entry subcircuit for sky130_fd_sc_hd__decap_6 abstract view
.subckt sky130_fd_sc_hd__decap_6 VGND VNB VPB VPWR
.ends

* Black-box entry subcircuit for sky130_fd_sc_hd__fill_2 abstract view
.subckt sky130_fd_sc_hd__fill_2 VGND VNB VPB VPWR
.ends

* Black-box entry subcircuit for sky130_fd_sc_hd__decap_4 abstract view
.subckt sky130_fd_sc_hd__decap_4 VGND VNB VPB VPWR
.ends

* Black-box entry subcircuit for sky130_fd_sc_hd__xor2_2 abstract view
.subckt sky130_fd_sc_hd__xor2_2 A B VGND VNB VPB VPWR X
.ends

* Black-box entry subcircuit for sky130_fd_sc_hd__a31o_1 abstract view
.subckt sky130_fd_sc_hd__a31o_1 A1 A2 A3 B1 VGND VNB VPB VPWR X
.ends

* Black-box entry subcircuit for sky130_fd_sc_hd__xor2_1 abstract view
.subckt sky130_fd_sc_hd__xor2_1 A B VGND VNB VPB VPWR X
.ends

* Black-box entry subcircuit for sky130_fd_sc_hd__decap_8 abstract view
.subckt sky130_fd_sc_hd__decap_8 VGND VNB VPB VPWR
.ends

* Black-box entry subcircuit for sky130_fd_sc_hd__dlygate4sd1_1 abstract view
.subckt sky130_fd_sc_hd__dlygate4sd1_1 A VGND VNB VPB VPWR X
.ends

* Black-box entry subcircuit for sky130_fd_sc_hd__buf_6 abstract view
.subckt sky130_fd_sc_hd__buf_6 A VGND VNB VPB VPWR X
.ends

* Black-box entry subcircuit for sky130_fd_sc_hd__buf_4 abstract view
.subckt sky130_fd_sc_hd__buf_4 A VGND VNB VPB VPWR X
.ends

* Black-box entry subcircuit for sky130_fd_sc_hd__and2_1 abstract view
.subckt sky130_fd_sc_hd__and2_1 A B VGND VNB VPB VPWR X
.ends

* Black-box entry subcircuit for sky130_fd_sc_hd__nand4_2 abstract view
.subckt sky130_fd_sc_hd__nand4_2 A B C D VGND VNB VPB VPWR Y
.ends

* Black-box entry subcircuit for sky130_fd_sc_hd__decap_3 abstract view
.subckt sky130_fd_sc_hd__decap_3 VGND VNB VPB VPWR
.ends

* Black-box entry subcircuit for sky130_fd_sc_hd__a21o_1 abstract view
.subckt sky130_fd_sc_hd__a21o_1 A1 A2 B1 VGND VNB VPB VPWR X
.ends

* Black-box entry subcircuit for sky130_fd_sc_hd__and4b_1 abstract view
.subckt sky130_fd_sc_hd__and4b_1 A_N B C D VGND VNB VPB VPWR X
.ends

* Black-box entry subcircuit for sky130_fd_sc_hd__dlymetal6s2s_1 abstract view
.subckt sky130_fd_sc_hd__dlymetal6s2s_1 A VGND VNB VPB VPWR X
.ends

* Black-box entry subcircuit for sky130_fd_sc_hd__and4_1 abstract view
.subckt sky130_fd_sc_hd__and4_1 A B C D VGND VNB VPB VPWR X
.ends

* Black-box entry subcircuit for sky130_fd_sc_hd__or3_1 abstract view
.subckt sky130_fd_sc_hd__or3_1 A B C VGND VNB VPB VPWR X
.ends

* Black-box entry subcircuit for sky130_fd_sc_hd__and2b_1 abstract view
.subckt sky130_fd_sc_hd__and2b_1 A_N B VGND VNB VPB VPWR X
.ends

* Black-box entry subcircuit for sky130_fd_sc_hd__a41o_1 abstract view
.subckt sky130_fd_sc_hd__a41o_1 A1 A2 A3 A4 B1 VGND VNB VPB VPWR X
.ends

* Black-box entry subcircuit for sky130_fd_sc_hd__xnor2_1 abstract view
.subckt sky130_fd_sc_hd__xnor2_1 A B VGND VNB VPB VPWR Y
.ends

* Black-box entry subcircuit for sky130_fd_sc_hd__buf_8 abstract view
.subckt sky130_fd_sc_hd__buf_8 A VGND VNB VPB VPWR X
.ends

* Black-box entry subcircuit for sky130_fd_sc_hd__o221ai_2 abstract view
.subckt sky130_fd_sc_hd__o221ai_2 A1 A2 B1 B2 C1 VGND VNB VPB VPWR Y
.ends

* Black-box entry subcircuit for sky130_fd_sc_hd__a21bo_1 abstract view
.subckt sky130_fd_sc_hd__a21bo_1 A1 A2 B1_N VGND VNB VPB VPWR X
.ends

* Black-box entry subcircuit for sky130_fd_sc_hd__and3b_1 abstract view
.subckt sky130_fd_sc_hd__and3b_1 A_N B C VGND VNB VPB VPWR X
.ends

* Black-box entry subcircuit for sky130_fd_sc_hd__a31o_4 abstract view
.subckt sky130_fd_sc_hd__a31o_4 A1 A2 A3 B1 VGND VNB VPB VPWR X
.ends

* Black-box entry subcircuit for sky130_fd_sc_hd__a21oi_1 abstract view
.subckt sky130_fd_sc_hd__a21oi_1 A1 A2 B1 VGND VNB VPB VPWR Y
.ends

* Black-box entry subcircuit for sky130_fd_sc_hd__and3_1 abstract view
.subckt sky130_fd_sc_hd__and3_1 A B C VGND VNB VPB VPWR X
.ends

* Black-box entry subcircuit for sky130_fd_sc_hd__o21a_1 abstract view
.subckt sky130_fd_sc_hd__o21a_1 A1 A2 B1 VGND VNB VPB VPWR X
.ends

* Black-box entry subcircuit for sky130_fd_sc_hd__buf_2 abstract view
.subckt sky130_fd_sc_hd__buf_2 A VGND VNB VPB VPWR X
.ends

* Black-box entry subcircuit for sky130_fd_sc_hd__o21bai_1 abstract view
.subckt sky130_fd_sc_hd__o21bai_1 A1 A2 B1_N VGND VNB VPB VPWR Y
.ends

* Black-box entry subcircuit for sky130_fd_sc_hd__or2_1 abstract view
.subckt sky130_fd_sc_hd__or2_1 A B VGND VNB VPB VPWR X
.ends

* Black-box entry subcircuit for sky130_fd_sc_hd__nand2_1 abstract view
.subckt sky130_fd_sc_hd__nand2_1 A B VGND VNB VPB VPWR Y
.ends

* Black-box entry subcircuit for sky130_fd_sc_hd__o211a_1 abstract view
.subckt sky130_fd_sc_hd__o211a_1 A1 A2 B1 C1 VGND VNB VPB VPWR X
.ends

* Black-box entry subcircuit for sky130_fd_sc_hd__or3b_4 abstract view
.subckt sky130_fd_sc_hd__or3b_4 A B C_N VGND VNB VPB VPWR X
.ends

* Black-box entry subcircuit for sky130_fd_sc_hd__a211oi_1 abstract view
.subckt sky130_fd_sc_hd__a211oi_1 A1 A2 B1 C1 VGND VNB VPB VPWR Y
.ends

* Black-box entry subcircuit for sky130_fd_sc_hd__inv_2 abstract view
.subckt sky130_fd_sc_hd__inv_2 A VGND VNB VPB VPWR Y
.ends

* Black-box entry subcircuit for sky130_fd_sc_hd__nand4_1 abstract view
.subckt sky130_fd_sc_hd__nand4_1 A B C D VGND VNB VPB VPWR Y
.ends

* Black-box entry subcircuit for sky130_fd_sc_hd__o2111a_1 abstract view
.subckt sky130_fd_sc_hd__o2111a_1 A1 A2 B1 C1 D1 VGND VNB VPB VPWR X
.ends

* Black-box entry subcircuit for sky130_fd_sc_hd__or3_2 abstract view
.subckt sky130_fd_sc_hd__or3_2 A B C VGND VNB VPB VPWR X
.ends

* Black-box entry subcircuit for sky130_fd_sc_hd__nand3_1 abstract view
.subckt sky130_fd_sc_hd__nand3_1 A B C VGND VNB VPB VPWR Y
.ends

* Black-box entry subcircuit for sky130_fd_sc_hd__a21oi_4 abstract view
.subckt sky130_fd_sc_hd__a21oi_4 A1 A2 B1 VGND VNB VPB VPWR Y
.ends

* Black-box entry subcircuit for sky130_fd_sc_hd__or3b_1 abstract view
.subckt sky130_fd_sc_hd__or3b_1 A B C_N VGND VNB VPB VPWR X
.ends

* Black-box entry subcircuit for sky130_fd_sc_hd__clkbuf_2 abstract view
.subckt sky130_fd_sc_hd__clkbuf_2 A VGND VNB VPB VPWR X
.ends

* Black-box entry subcircuit for sky130_fd_sc_hd__nand2_2 abstract view
.subckt sky130_fd_sc_hd__nand2_2 A B VGND VNB VPB VPWR Y
.ends

* Black-box entry subcircuit for sky130_fd_sc_hd__xnor2_2 abstract view
.subckt sky130_fd_sc_hd__xnor2_2 A B VGND VNB VPB VPWR Y
.ends

* Black-box entry subcircuit for sky130_fd_sc_hd__a21boi_1 abstract view
.subckt sky130_fd_sc_hd__a21boi_1 A1 A2 B1_N VGND VNB VPB VPWR Y
.ends

* Black-box entry subcircuit for sky130_fd_sc_hd__o311ai_4 abstract view
.subckt sky130_fd_sc_hd__o311ai_4 A1 A2 A3 B1 C1 VGND VNB VPB VPWR Y
.ends

* Black-box entry subcircuit for sky130_fd_sc_hd__o31ai_2 abstract view
.subckt sky130_fd_sc_hd__o31ai_2 A1 A2 A3 B1 VGND VNB VPB VPWR Y
.ends

* Black-box entry subcircuit for sky130_fd_sc_hd__clkbuf_1 abstract view
.subckt sky130_fd_sc_hd__clkbuf_1 A VGND VNB VPB VPWR X
.ends

* Black-box entry subcircuit for sky130_fd_sc_hd__or4_4 abstract view
.subckt sky130_fd_sc_hd__or4_4 A B C D VGND VNB VPB VPWR X
.ends

* Black-box entry subcircuit for sky130_fd_sc_hd__a32o_1 abstract view
.subckt sky130_fd_sc_hd__a32o_1 A1 A2 A3 B1 B2 VGND VNB VPB VPWR X
.ends

* Black-box entry subcircuit for sky130_fd_sc_hd__o21ai_1 abstract view
.subckt sky130_fd_sc_hd__o21ai_1 A1 A2 B1 VGND VNB VPB VPWR Y
.ends

* Black-box entry subcircuit for sky130_fd_sc_hd__o31a_1 abstract view
.subckt sky130_fd_sc_hd__o31a_1 A1 A2 A3 B1 VGND VNB VPB VPWR X
.ends

* Black-box entry subcircuit for sky130_fd_sc_hd__a2bb2o_1 abstract view
.subckt sky130_fd_sc_hd__a2bb2o_1 A1_N A2_N B1 B2 VGND VNB VPB VPWR X
.ends

* Black-box entry subcircuit for sky130_fd_sc_hd__nor2_2 abstract view
.subckt sky130_fd_sc_hd__nor2_2 A B VGND VNB VPB VPWR Y
.ends

* Black-box entry subcircuit for sky130_fd_sc_hd__or3_4 abstract view
.subckt sky130_fd_sc_hd__or3_4 A B C VGND VNB VPB VPWR X
.ends

* Black-box entry subcircuit for sky130_fd_sc_hd__clkbuf_4 abstract view
.subckt sky130_fd_sc_hd__clkbuf_4 A VGND VNB VPB VPWR X
.ends

* Black-box entry subcircuit for sky130_fd_sc_hd__a311oi_2 abstract view
.subckt sky130_fd_sc_hd__a311oi_2 A1 A2 A3 B1 C1 VGND VNB VPB VPWR Y
.ends

* Black-box entry subcircuit for sky130_fd_sc_hd__a311o_1 abstract view
.subckt sky130_fd_sc_hd__a311o_1 A1 A2 A3 B1 C1 VGND VNB VPB VPWR X
.ends

* Black-box entry subcircuit for sky130_fd_sc_hd__nand3b_1 abstract view
.subckt sky130_fd_sc_hd__nand3b_1 A_N B C VGND VNB VPB VPWR Y
.ends

* Black-box entry subcircuit for sky130_fd_sc_hd__dlygate4sd3_1 abstract view
.subckt sky130_fd_sc_hd__dlygate4sd3_1 A VGND VNB VPB VPWR X
.ends

* Black-box entry subcircuit for sky130_fd_sc_hd__or2_2 abstract view
.subckt sky130_fd_sc_hd__or2_2 A B VGND VNB VPB VPWR X
.ends

* Black-box entry subcircuit for sky130_fd_sc_hd__a211oi_2 abstract view
.subckt sky130_fd_sc_hd__a211oi_2 A1 A2 B1 C1 VGND VNB VPB VPWR Y
.ends

* Black-box entry subcircuit for sky130_fd_sc_hd__o21ba_1 abstract view
.subckt sky130_fd_sc_hd__o21ba_1 A1 A2 B1_N VGND VNB VPB VPWR X
.ends

.subckt mult8_2bits_1op_e16769 A[0] A[1] A[2] A[3] A[4] A[5] A[6] A[7] B[0] B[1] B[2]
+ B[3] B[4] B[5] B[6] B[7] P[0] P[10] P[11] P[12] P[13] P[14] P[15] P[1] P[2] P[3]
+ P[4] P[5] P[6] P[7] P[8] P[9] VGND VPWR
XTAP_TAPCELL_ROW_37_401 VGND VPWR sky130_fd_sc_hd__tapvpwrvgnd_1
XFILLER_52_29 VPWR VGND VPWR VGND sky130_ef_sc_hd__decap_12
XFILLER_22_177 VPWR VGND VPWR VGND sky130_ef_sc_hd__decap_12
XFILLER_60_217 VPWR VGND VPWR VGND sky130_ef_sc_hd__decap_12
XFILLER_53_291 VPWR VGND VPWR VGND sky130_ef_sc_hd__decap_12
XFILLER_45_225 VPWR VGND VPWR VGND sky130_ef_sc_hd__decap_12
X_501_ _144_ _145_ VGND VGND VPWR VPWR _146_ sky130_fd_sc_hd__nand2b_1
XFILLER_13_111 VGND VGND VPWR VPWR sky130_fd_sc_hd__fill_1
XFILLER_26_41 VPWR VGND VPWR VGND sky130_ef_sc_hd__decap_12
XFILLER_26_85 VPWR VGND VPWR VGND sky130_ef_sc_hd__decap_12
X_432_ net45 _022_ _034_ VGND VGND VPWR VPWR _079_ sky130_fd_sc_hd__a21boi_2
X_363_ _010_ _011_ VGND VGND VPWR VPWR _012_ sky130_fd_sc_hd__nor2_1
Xrebuffer7 net51 VGND VGND VPWR VPWR net58 sky130_fd_sc_hd__buf_1
X_294_ net33 net77 net59 net48 VGND VGND VPWR VPWR _231_ sky130_fd_sc_hd__a22o_1
XFILLER_9_137 VPWR VGND VPWR VGND sky130_ef_sc_hd__decap_12
XFILLER_51_217 VGND VGND VPWR VPWR sky130_fd_sc_hd__decap_6
XFILLER_63_39 VPWR VGND VPWR VGND sky130_ef_sc_hd__decap_12
XFILLER_27_225 VPWR VGND VPWR VGND sky130_ef_sc_hd__decap_12
XFILLER_50_250 VGND VGND VPWR VPWR sky130_fd_sc_hd__fill_2
XTAP_TAPCELL_ROW_40_418 VGND VPWR sky130_fd_sc_hd__tapvpwrvgnd_1
XFILLER_2_357 VGND VGND VPWR VPWR sky130_fd_sc_hd__decap_6
XFILLER_12_65 VPWR VGND VPWR VGND sky130_ef_sc_hd__decap_12
XFILLER_37_51 VGND VGND VPWR VPWR sky130_fd_sc_hd__decap_4
XTAP_TAPCELL_ROW_5_173 VGND VPWR sky130_fd_sc_hd__tapvpwrvgnd_1
XFILLER_18_247 VGND VGND VPWR VPWR sky130_fd_sc_hd__decap_4
XFILLER_41_261 VPWR VGND VPWR VGND sky130_ef_sc_hd__decap_12
XFILLER_33_217 VGND VGND VPWR VPWR sky130_fd_sc_hd__decap_6
X_415_ net100 _061_ VGND VGND VPWR VPWR net30 sky130_fd_sc_hd__xor2_2
X_346_ _277_ net46 net54 _239_ VGND VGND VPWR VPWR _279_ sky130_fd_sc_hd__a31o_1
XFILLER_56_309 VPWR VGND VPWR VGND sky130_ef_sc_hd__decap_12
XFILLER_64_320 VPWR VGND VPWR VGND sky130_ef_sc_hd__decap_12
XFILLER_49_361 VPWR VGND VPWR VGND sky130_ef_sc_hd__decap_12
XTAP_TAPCELL_ROW_19_275 VGND VPWR sky130_fd_sc_hd__tapvpwrvgnd_1
XFILLER_24_217 VPWR VGND VPWR VGND sky130_ef_sc_hd__decap_12
XTAP_TAPCELL_ROW_62_576 VGND VPWR sky130_fd_sc_hd__tapvpwrvgnd_1
XFILLER_32_294 VPWR VGND VPWR VGND sky130_ef_sc_hd__decap_12
XFILLER_59_169 VPWR VGND VPWR VGND sky130_ef_sc_hd__decap_12
XTAP_TAPCELL_ROW_2_154 VGND VPWR sky130_fd_sc_hd__tapvpwrvgnd_1
XTAP_TAPCELL_ROW_53_510 VGND VPWR sky130_fd_sc_hd__tapvpwrvgnd_1
XFILLER_15_217 VGND VGND VPWR VPWR sky130_fd_sc_hd__decap_6
XFILLER_7_405 VGND VGND VPWR VPWR sky130_fd_sc_hd__fill_2
XFILLER_38_309 VPWR VGND VPWR VGND sky130_ef_sc_hd__decap_12
XFILLER_2_165 VPWR VGND VPWR VGND sky130_ef_sc_hd__decap_12
XFILLER_2_121 VPWR VGND VPWR VGND sky130_ef_sc_hd__decap_12
XFILLER_48_83 VGND VGND VPWR VPWR sky130_fd_sc_hd__fill_1
XFILLER_0_57 VPWR VGND VPWR VGND sky130_ef_sc_hd__decap_12
XFILLER_9_55 VGND VGND VPWR VPWR sky130_fd_sc_hd__fill_1
X_329_ _246_ _261_ VGND VGND VPWR VPWR _263_ sky130_fd_sc_hd__xor2_1
XFILLER_50_3 VPWR VGND VPWR VGND sky130_ef_sc_hd__decap_12
XFILLER_56_139 VGND VGND VPWR VPWR sky130_fd_sc_hd__fill_1
XFILLER_52_389 VPWR VGND VPWR VGND sky130_ef_sc_hd__decap_12
XFILLER_52_345 VPWR VGND VPWR VGND sky130_ef_sc_hd__decap_12
XFILLER_52_301 VGND VGND VPWR VPWR sky130_fd_sc_hd__decap_6
XFILLER_44_19 VGND VGND VPWR VPWR sky130_fd_sc_hd__decap_8
XFILLER_12_209 VPWR VGND VPWR VGND sky130_ef_sc_hd__decap_12
XFILLER_60_29 VPWR VGND VPWR VGND sky130_ef_sc_hd__decap_12
XFILLER_20_253 VPWR VGND VPWR VGND sky130_ef_sc_hd__decap_12
XFILLER_62_109 VPWR VGND VPWR VGND sky130_ef_sc_hd__decap_12
XFILLER_55_161 VGND VGND VPWR VPWR sky130_fd_sc_hd__decap_6
XFILLER_43_334 VGND VGND VPWR VPWR sky130_fd_sc_hd__fill_2
XFILLER_18_53 VPWR VGND VPWR VGND sky130_ef_sc_hd__decap_12
XFILLER_34_85 VGND VGND VPWR VPWR sky130_fd_sc_hd__decap_6
XFILLER_34_41 VPWR VGND VPWR VGND sky130_ef_sc_hd__decap_12
XFILLER_7_279 VGND VGND VPWR VPWR sky130_fd_sc_hd__fill_1
XFILLER_59_93 VPWR VGND VPWR VGND sky130_ef_sc_hd__decap_12
XFILLER_22_7 VPWR VGND VPWR VGND sky130_ef_sc_hd__decap_12
XFILLER_34_389 VPWR VGND VPWR VGND sky130_ef_sc_hd__decap_12
XFILLER_34_345 VPWR VGND VPWR VGND sky130_ef_sc_hd__decap_12
XTAP_TAPCELL_ROW_27_329 VGND VPWR sky130_fd_sc_hd__tapvpwrvgnd_1
XFILLER_52_197 VGND VGND VPWR VPWR sky130_fd_sc_hd__decap_4
XFILLER_52_153 VPWR VGND VPWR VGND sky130_ef_sc_hd__decap_12
XTAP_TAPCELL_ROW_35_384 VGND VPWR sky130_fd_sc_hd__tapvpwrvgnd_1
XTAP_TAPCELL_ROW_10_207 VGND VPWR sky130_fd_sc_hd__tapvpwrvgnd_1
XFILLER_45_51 VGND VGND VPWR VPWR sky130_fd_sc_hd__decap_4
XFILLER_43_164 VGND VGND VPWR VPWR sky130_fd_sc_hd__decap_4
XFILLER_16_301 VGND VGND VPWR VPWR sky130_fd_sc_hd__decap_6
XFILLER_16_345 VPWR VGND VPWR VGND sky130_ef_sc_hd__decap_12
XFILLER_16_389 VPWR VGND VPWR VGND sky130_ef_sc_hd__decap_12
XFILLER_31_337 VPWR VGND VPWR VGND sky130_ef_sc_hd__decap_12
XFILLER_3_293 VPWR VGND VPWR VGND sky130_ef_sc_hd__decap_12
Xrebuffer28 net40 VGND VGND VPWR VPWR net79 sky130_fd_sc_hd__dlygate4sd1_1
XFILLER_13_3 VPWR VGND VPWR VGND sky130_ef_sc_hd__decap_12
XFILLER_34_153 VPWR VGND VPWR VGND sky130_ef_sc_hd__decap_12
XFILLER_34_120 VGND VGND VPWR VPWR sky130_fd_sc_hd__decap_8
XTAP_TAPCELL_ROW_32_365 VGND VPWR sky130_fd_sc_hd__tapvpwrvgnd_1
XFILLER_57_223 VGND VGND VPWR VPWR sky130_fd_sc_hd__fill_1
XFILLER_40_156 VPWR VGND VPWR VGND sky130_ef_sc_hd__decap_12
XFILLER_13_337 VPWR VGND VPWR VGND sky130_ef_sc_hd__decap_12
XFILLER_15_87 VGND VGND VPWR VPWR sky130_fd_sc_hd__fill_1
Xoutput20 net20 VGND VGND VPWR VPWR P[12] sky130_fd_sc_hd__buf_6
Xoutput31 net31 VGND VGND VPWR VPWR P[8] sky130_fd_sc_hd__buf_4
XFILLER_63_237 VPWR VGND VPWR VGND sky130_ef_sc_hd__decap_12
XFILLER_56_83 VGND VGND VPWR VPWR sky130_fd_sc_hd__fill_1
XFILLER_48_289 VPWR VGND VPWR VGND sky130_ef_sc_hd__decap_12
X_577_ _215_ _216_ VGND VGND VPWR VPWR _218_ sky130_fd_sc_hd__xor2_1
XFILLER_16_153 VPWR VGND VPWR VGND sky130_ef_sc_hd__decap_12
XFILLER_16_197 VPWR VGND VPWR VGND sky130_ef_sc_hd__decap_12
XFILLER_31_189 VGND VGND VPWR VPWR sky130_fd_sc_hd__fill_2
XFILLER_8_363 VGND VGND VPWR VPWR sky130_fd_sc_hd__fill_1
XFILLER_39_223 VGND VGND VPWR VPWR sky130_fd_sc_hd__fill_1
XFILLER_54_215 VGND VGND VPWR VPWR sky130_fd_sc_hd__fill_2
XTAP_TAPCELL_ROW_37_402 VGND VPWR sky130_fd_sc_hd__tapvpwrvgnd_1
XFILLER_10_307 VGND VGND VPWR VPWR sky130_fd_sc_hd__fill_1
XFILLER_22_189 VGND VGND VPWR VPWR sky130_fd_sc_hd__decap_6
X_500_ _116_ _139_ _140_ _143_ VGND VGND VPWR VPWR _145_ sky130_fd_sc_hd__a31o_1
XFILLER_60_229 VPWR VGND VPWR VGND sky130_ef_sc_hd__decap_12
XFILLER_53_281 VGND VGND VPWR VPWR sky130_fd_sc_hd__decap_4
XFILLER_45_237 VPWR VGND VPWR VGND sky130_ef_sc_hd__decap_12
XTAP_TAPCELL_ROW_43_438 VGND VPWR sky130_fd_sc_hd__tapvpwrvgnd_1
X_362_ _006_ _009_ VGND VGND VPWR VPWR _011_ sky130_fd_sc_hd__and2_1
X_431_ _076_ _077_ VGND VGND VPWR VPWR _078_ sky130_fd_sc_hd__nand2b_1
XFILLER_9_105 VGND VGND VPWR VPWR sky130_fd_sc_hd__decap_6
XFILLER_13_167 VGND VGND VPWR VPWR sky130_fd_sc_hd__fill_1
XFILLER_26_53 VPWR VGND VPWR VGND sky130_ef_sc_hd__decap_12
XFILLER_26_97 VGND VGND VPWR VPWR sky130_fd_sc_hd__decap_6
XFILLER_42_85 VPWR VGND VPWR VGND sky130_ef_sc_hd__decap_12
XFILLER_42_41 VPWR VGND VPWR VGND sky130_ef_sc_hd__decap_12
Xrebuffer8 net58 VGND VGND VPWR VPWR net59 sky130_fd_sc_hd__dlygate4sd1_1
X_293_ net33 net48 net40 net58 VGND VGND VPWR VPWR _230_ sky130_fd_sc_hd__nand4_2
XFILLER_9_149 VPWR VGND VPWR VGND sky130_ef_sc_hd__decap_12
XFILLER_3_57 VPWR VGND VPWR VGND sky130_ef_sc_hd__decap_12
XTAP_TAPCELL_ROW_8_193 VGND VPWR sky130_fd_sc_hd__tapvpwrvgnd_1
XFILLER_44_281 VGND VGND VPWR VPWR sky130_fd_sc_hd__fill_2
XFILLER_35_281 VPWR VGND VPWR VGND sky130_ef_sc_hd__decap_12
XFILLER_27_237 VPWR VGND VPWR VGND sky130_ef_sc_hd__decap_12
XPHY_EDGE_ROW_19_Left_84 VGND VGND VPWR VPWR sky130_fd_sc_hd__decap_3
XTAP_TAPCELL_ROW_40_419 VGND VPWR sky130_fd_sc_hd__tapvpwrvgnd_1
XFILLER_12_77 VGND VGND VPWR VPWR sky130_fd_sc_hd__decap_6
XTAP_TAPCELL_ROW_56_530 VGND VPWR sky130_fd_sc_hd__tapvpwrvgnd_1
XTAP_TAPCELL_ROW_5_174 VGND VPWR sky130_fd_sc_hd__tapvpwrvgnd_1
XFILLER_53_51 VGND VGND VPWR VPWR sky130_fd_sc_hd__decap_4
XFILLER_41_273 VGND VGND VPWR VPWR sky130_fd_sc_hd__decap_6
X_414_ _027_ _030_ _026_ VGND VGND VPWR VPWR _062_ sky130_fd_sc_hd__a21o_1
X_345_ net55 net45 _239_ _277_ VGND VGND VPWR VPWR _278_ sky130_fd_sc_hd__nand4_2
XFILLER_49_373 VPWR VGND VPWR VGND sky130_ef_sc_hd__decap_12
XFILLER_1_391 VGND VGND VPWR VPWR sky130_fd_sc_hd__fill_1
XFILLER_64_365 VPWR VGND VPWR VGND sky130_ef_sc_hd__decap_12
XFILLER_64_332 VGND VGND VPWR VPWR sky130_fd_sc_hd__decap_4
XFILLER_17_281 VPWR VGND VPWR VGND sky130_ef_sc_hd__decap_12
XTAP_TAPCELL_ROW_19_276 VGND VPWR sky130_fd_sc_hd__tapvpwrvgnd_1
XFILLER_24_229 VGND VGND VPWR VPWR sky130_fd_sc_hd__fill_1
XTAP_TAPCELL_ROW_62_577 VGND VPWR sky130_fd_sc_hd__tapvpwrvgnd_1
XFILLER_32_251 VGND VGND VPWR VPWR sky130_fd_sc_hd__fill_1
XFILLER_58_29 VPWR VGND VPWR VGND sky130_ef_sc_hd__decap_12
XPHY_EDGE_ROW_12_Right_12 VGND VGND VPWR VPWR sky130_fd_sc_hd__decap_3
XTAP_TAPCELL_ROW_2_155 VGND VPWR sky130_fd_sc_hd__tapvpwrvgnd_1
XPHY_EDGE_ROW_21_Right_21 VGND VGND VPWR VPWR sky130_fd_sc_hd__decap_3
XTAP_TAPCELL_ROW_53_511 VGND VPWR sky130_fd_sc_hd__tapvpwrvgnd_1
XPHY_EDGE_ROW_4_Left_69 VGND VGND VPWR VPWR sky130_fd_sc_hd__decap_3
XPHY_EDGE_ROW_30_Right_30 VGND VGND VPWR VPWR sky130_fd_sc_hd__decap_3
XFILLER_2_177 VPWR VGND VPWR VGND sky130_ef_sc_hd__decap_12
XFILLER_2_133 VGND VGND VPWR VPWR sky130_fd_sc_hd__decap_6
XFILLER_61_335 VGND VGND VPWR VPWR sky130_fd_sc_hd__fill_1
XFILLER_46_365 VPWR VGND VPWR VGND sky130_ef_sc_hd__decap_12
XFILLER_46_321 VPWR VGND VPWR VGND sky130_ef_sc_hd__decap_12
XFILLER_0_69 VPWR VGND VPWR VGND sky130_ef_sc_hd__decap_12
XFILLER_14_251 VGND VGND VPWR VPWR sky130_fd_sc_hd__fill_1
X_328_ _259_ _260_ _240_ _245_ VGND VGND VPWR VPWR _262_ sky130_fd_sc_hd__and4b_1
XFILLER_43_3 VPWR VGND VPWR VGND sky130_ef_sc_hd__decap_12
XFILLER_49_181 VGND VGND VPWR VPWR sky130_fd_sc_hd__decap_6
XFILLER_64_195 VGND VGND VPWR VPWR sky130_fd_sc_hd__fill_1
XFILLER_52_357 VGND VGND VPWR VPWR sky130_fd_sc_hd__decap_6
XFILLER_20_265 VPWR VGND VPWR VGND sky130_ef_sc_hd__decap_12
XFILLER_43_302 VPWR VGND VPWR VGND sky130_ef_sc_hd__decap_12
XFILLER_28_365 VPWR VGND VPWR VGND sky130_ef_sc_hd__decap_12
XFILLER_28_321 VPWR VGND VPWR VGND sky130_ef_sc_hd__decap_12
XFILLER_18_65 VPWR VGND VPWR VGND sky130_ef_sc_hd__decap_12
XFILLER_50_41 VPWR VGND VPWR VGND sky130_ef_sc_hd__decap_12
XFILLER_34_53 VPWR VGND VPWR VGND sky130_ef_sc_hd__decap_12
XFILLER_7_225 VPWR VGND VPWR VGND sky130_ef_sc_hd__decap_12
XFILLER_11_210 VPWR VGND VPWR VGND sky130_ef_sc_hd__decap_12
XFILLER_50_85 VPWR VGND VPWR VGND sky130_ef_sc_hd__decap_12
XFILLER_38_129 VGND VGND VPWR VPWR sky130_fd_sc_hd__fill_1
XFILLER_34_357 VGND VGND VPWR VPWR sky130_fd_sc_hd__decap_6
XFILLER_57_405 VGND VGND VPWR VPWR sky130_fd_sc_hd__fill_2
XFILLER_52_121 VPWR VGND VPWR VGND sky130_ef_sc_hd__decap_12
XFILLER_25_335 VGND VGND VPWR VPWR sky130_fd_sc_hd__fill_1
XFILLER_52_165 VPWR VGND VPWR VGND sky130_ef_sc_hd__decap_12
XTAP_TAPCELL_ROW_35_385 VGND VPWR sky130_fd_sc_hd__tapvpwrvgnd_1
XTAP_TAPCELL_ROW_10_208 VGND VPWR sky130_fd_sc_hd__tapvpwrvgnd_1
XFILLER_45_85 VGND VGND VPWR VPWR sky130_fd_sc_hd__fill_1
XFILLER_31_349 VPWR VGND VPWR VGND sky130_ef_sc_hd__decap_12
XFILLER_31_305 VPWR VGND VPWR VGND sky130_ef_sc_hd__decap_12
XFILLER_28_195 VGND VGND VPWR VPWR sky130_fd_sc_hd__fill_1
XFILLER_16_357 VGND VGND VPWR VPWR sky130_fd_sc_hd__decap_6
XFILLER_61_51 VGND VGND VPWR VPWR sky130_fd_sc_hd__decap_4
XPHY_EDGE_ROW_7_Left_72 VGND VGND VPWR VPWR sky130_fd_sc_hd__decap_3
XFILLER_39_405 VGND VGND VPWR VPWR sky130_fd_sc_hd__fill_2
XFILLER_3_261 VPWR VGND VPWR VGND sky130_ef_sc_hd__decap_12
Xrebuffer29 net79 VGND VGND VPWR VPWR net80 sky130_fd_sc_hd__dlymetal6s2s_1
XFILLER_34_165 VPWR VGND VPWR VGND sky130_ef_sc_hd__decap_12
XTAP_TAPCELL_ROW_32_366 VGND VPWR sky130_fd_sc_hd__tapvpwrvgnd_1
XPHY_EDGE_ROW_6_Right_6 VGND VGND VPWR VPWR sky130_fd_sc_hd__decap_3
XFILLER_13_305 VPWR VGND VPWR VGND sky130_ef_sc_hd__decap_12
XFILLER_13_349 VPWR VGND VPWR VGND sky130_ef_sc_hd__decap_12
XFILLER_15_55 VGND VGND VPWR VPWR sky130_fd_sc_hd__fill_1
XTAP_TAPCELL_ROW_23_300 VGND VPWR sky130_fd_sc_hd__tapvpwrvgnd_1
XFILLER_25_121 VGND VGND VPWR VPWR sky130_fd_sc_hd__decap_3
XFILLER_40_168 VPWR VGND VPWR VGND sky130_ef_sc_hd__decap_12
XFILLER_21_393 VPWR VGND VPWR VGND sky130_ef_sc_hd__decap_12
Xoutput21 net21 VGND VGND VPWR VPWR P[13] sky130_fd_sc_hd__buf_4
XPHY_EDGE_ROW_33_Left_98 VGND VGND VPWR VPWR sky130_fd_sc_hd__decap_3
XFILLER_0_253 VPWR VGND VPWR VGND sky130_ef_sc_hd__decap_12
Xoutput32 net32 VGND VGND VPWR VPWR P[9] sky130_fd_sc_hd__buf_6
XFILLER_63_249 VPWR VGND VPWR VGND sky130_ef_sc_hd__decap_12
XFILLER_63_205 VPWR VGND VPWR VGND sky130_ef_sc_hd__decap_12
XFILLER_16_121 VPWR VGND VPWR VGND sky130_ef_sc_hd__decap_12
X_576_ _215_ _216_ VGND VGND VPWR VPWR _217_ sky130_fd_sc_hd__and2_1
XPHY_EDGE_ROW_59_Right_59 VGND VGND VPWR VPWR sky130_fd_sc_hd__decap_3
XFILLER_31_157 VGND VGND VPWR VPWR sky130_fd_sc_hd__decap_8
XFILLER_31_113 VPWR VGND VPWR VGND sky130_ef_sc_hd__decap_12
XFILLER_16_165 VPWR VGND VPWR VGND sky130_ef_sc_hd__decap_12
XFILLER_54_238 VPWR VGND VPWR VGND sky130_ef_sc_hd__decap_12
XFILLER_54_205 VGND VGND VPWR VPWR sky130_fd_sc_hd__fill_2
XFILLER_39_279 VGND VGND VPWR VPWR sky130_fd_sc_hd__fill_1
XFILLER_45_249 VGND VGND VPWR VPWR sky130_fd_sc_hd__fill_1
XTAP_TAPCELL_ROW_43_439 VGND VPWR sky130_fd_sc_hd__tapvpwrvgnd_1
XFILLER_42_53 VPWR VGND VPWR VGND sky130_ef_sc_hd__decap_12
X_361_ _006_ _009_ VGND VGND VPWR VPWR _010_ sky130_fd_sc_hd__nor2_1
X_292_ net33 net48 net40 net50 VGND VGND VPWR VPWR _229_ sky130_fd_sc_hd__and4_1
X_430_ net49 net8 _269_ _075_ VGND VGND VPWR VPWR _077_ sky130_fd_sc_hd__a31o_1
XFILLER_13_113 VPWR VGND VPWR VGND sky130_ef_sc_hd__decap_12
XFILLER_26_65 VPWR VGND VPWR VGND sky130_ef_sc_hd__decap_12
XTAP_TAPCELL_ROW_51_494 VGND VPWR sky130_fd_sc_hd__tapvpwrvgnd_1
XFILLER_42_97 VPWR VGND VPWR VGND sky130_ef_sc_hd__decap_12
Xrebuffer9 net72 VGND VGND VPWR VPWR net60 sky130_fd_sc_hd__dlygate4sd1_1
XFILLER_3_69 VPWR VGND VPWR VGND sky130_ef_sc_hd__decap_12
XTAP_TAPCELL_ROW_8_194 VGND VPWR sky130_fd_sc_hd__tapvpwrvgnd_1
XTAP_TAPCELL_ROW_59_550 VGND VPWR sky130_fd_sc_hd__tapvpwrvgnd_1
X_559_ _226_ _227_ _182_ VGND VGND VPWR VPWR _201_ sky130_fd_sc_hd__or3_1
XFILLER_27_249 VPWR VGND VPWR VGND sky130_ef_sc_hd__decap_12
XFILLER_35_293 VPWR VGND VPWR VGND sky130_ef_sc_hd__decap_12
XFILLER_6_109 VPWR VGND VPWR VGND sky130_ef_sc_hd__decap_12
XFILLER_58_363 VGND VGND VPWR VPWR sky130_fd_sc_hd__fill_1
XTAP_TAPCELL_ROW_56_531 VGND VPWR sky130_fd_sc_hd__tapvpwrvgnd_1
XTAP_TAPCELL_ROW_5_175 VGND VPWR sky130_fd_sc_hd__tapvpwrvgnd_1
X_413_ _031_ _059_ VGND VGND VPWR VPWR _061_ sky130_fd_sc_hd__xor2_2
X_344_ net37 net38 net47 net45 VGND VGND VPWR VPWR _277_ sky130_fd_sc_hd__nand4_2
XFILLER_49_385 VGND VGND VPWR VPWR sky130_fd_sc_hd__decap_6
XFILLER_64_377 VPWR VGND VPWR VGND sky130_ef_sc_hd__decap_12
XFILLER_17_293 VPWR VGND VPWR VGND sky130_ef_sc_hd__decap_12
XPHY_EDGE_ROW_20_Left_85 VGND VGND VPWR VPWR sky130_fd_sc_hd__decap_3
XFILLER_59_116 VPWR VGND VPWR VGND sky130_ef_sc_hd__decap_12
XFILLER_59_105 VGND VGND VPWR VPWR sky130_fd_sc_hd__decap_6
XTAP_TAPCELL_ROW_53_512 VGND VPWR sky130_fd_sc_hd__tapvpwrvgnd_1
XTAP_TAPCELL_ROW_2_156 VGND VPWR sky130_fd_sc_hd__tapvpwrvgnd_1
XFILLER_23_11 VGND VGND VPWR VPWR sky130_fd_sc_hd__fill_1
XFILLER_3_3 VPWR VGND VPWR VGND sky130_ef_sc_hd__decap_12
XFILLER_48_85 VPWR VGND VPWR VGND sky130_ef_sc_hd__decap_12
XFILLER_48_41 VPWR VGND VPWR VGND sky130_ef_sc_hd__decap_12
XFILLER_46_333 VPWR VGND VPWR VGND sky130_ef_sc_hd__decap_12
XFILLER_2_189 VGND VGND VPWR VPWR sky130_fd_sc_hd__decap_6
XFILLER_0_15 VPWR VGND VPWR VGND sky130_ef_sc_hd__decap_12
XFILLER_46_377 VPWR VGND VPWR VGND sky130_ef_sc_hd__decap_12
XFILLER_9_57 VPWR VGND VPWR VGND sky130_ef_sc_hd__decap_12
X_327_ _259_ _260_ VGND VGND VPWR VPWR _261_ sky130_fd_sc_hd__and2b_1
XFILLER_36_3 VPWR VGND VPWR VGND sky130_ef_sc_hd__decap_12
XFILLER_64_141 VPWR VGND VPWR VGND sky130_ef_sc_hd__decap_12
XFILLER_49_193 VGND VGND VPWR VPWR sky130_fd_sc_hd__fill_1
XFILLER_37_300 VPWR VGND VPWR VGND sky130_ef_sc_hd__decap_12
XFILLER_20_200 VPWR VGND VPWR VGND sky130_ef_sc_hd__decap_12
XFILLER_20_277 VGND VGND VPWR VPWR sky130_fd_sc_hd__decap_8
XFILLER_28_333 VPWR VGND VPWR VGND sky130_ef_sc_hd__decap_12
XFILLER_43_314 VPWR VGND VPWR VGND sky130_ef_sc_hd__decap_12
XFILLER_28_377 VPWR VGND VPWR VGND sky130_ef_sc_hd__decap_12
XFILLER_18_77 VGND VGND VPWR VPWR sky130_fd_sc_hd__decap_6
XFILLER_51_391 VGND VGND VPWR VPWR sky130_fd_sc_hd__fill_1
XFILLER_50_53 VPWR VGND VPWR VGND sky130_ef_sc_hd__decap_12
XFILLER_34_65 VPWR VGND VPWR VGND sky130_ef_sc_hd__decap_12
XFILLER_7_237 VPWR VGND VPWR VGND sky130_ef_sc_hd__decap_12
XFILLER_11_222 VGND VGND VPWR VPWR sky130_fd_sc_hd__fill_2
XTAP_TAPCELL_ROW_13_228 VGND VPWR sky130_fd_sc_hd__tapvpwrvgnd_1
XFILLER_59_51 VGND VGND VPWR VPWR sky130_fd_sc_hd__decap_4
XFILLER_50_97 VPWR VGND VPWR VGND sky130_ef_sc_hd__decap_12
XFILLER_61_111 VGND VGND VPWR VPWR sky130_fd_sc_hd__fill_1
XFILLER_52_177 VPWR VGND VPWR VGND sky130_ef_sc_hd__decap_12
XFILLER_52_133 VGND VGND VPWR VPWR sky130_fd_sc_hd__decap_6
XFILLER_37_130 VGND VGND VPWR VPWR sky130_fd_sc_hd__decap_6
XTAP_TAPCELL_ROW_35_386 VGND VPWR sky130_fd_sc_hd__tapvpwrvgnd_1
XFILLER_33_391 VGND VGND VPWR VPWR sky130_fd_sc_hd__fill_1
XTAP_TAPCELL_ROW_10_209 VGND VPWR sky130_fd_sc_hd__tapvpwrvgnd_1
XPHY_EDGE_ROW_42_Left_107 VGND VGND VPWR VPWR sky130_fd_sc_hd__decap_3
XFILLER_29_32 VGND VGND VPWR VPWR sky130_fd_sc_hd__fill_2
XFILLER_28_141 VPWR VGND VPWR VGND sky130_ef_sc_hd__decap_12
XPHY_EDGE_ROW_51_Left_116 VGND VGND VPWR VPWR sky130_fd_sc_hd__decap_3
XFILLER_43_199 VGND VGND VPWR VPWR sky130_fd_sc_hd__fill_1
XFILLER_43_111 VGND VGND VPWR VPWR sky130_fd_sc_hd__fill_1
XFILLER_31_317 VPWR VGND VPWR VGND sky130_ef_sc_hd__decap_12
XTAP_TAPCELL_ROW_26_320 VGND VPWR sky130_fd_sc_hd__tapvpwrvgnd_1
XPHY_EDGE_ROW_60_Left_125 VGND VGND VPWR VPWR sky130_fd_sc_hd__decap_3
XFILLER_3_273 VGND VGND VPWR VPWR sky130_fd_sc_hd__decap_6
Xrebuffer19 _280_ VGND VGND VPWR VPWR net70 sky130_fd_sc_hd__dlymetal6s2s_1
XFILLER_34_177 VPWR VGND VPWR VGND sky130_ef_sc_hd__decap_12
XTAP_TAPCELL_ROW_32_367 VGND VPWR sky130_fd_sc_hd__tapvpwrvgnd_1
XFILLER_15_391 VGND VGND VPWR VPWR sky130_fd_sc_hd__fill_1
XFILLER_57_236 VPWR VGND VPWR VGND sky130_ef_sc_hd__decap_12
XFILLER_57_225 VGND VGND VPWR VPWR sky130_fd_sc_hd__decap_8
XFILLER_40_147 VGND VGND VPWR VPWR sky130_fd_sc_hd__decap_6
XFILLER_40_125 VPWR VGND VPWR VGND sky130_ef_sc_hd__decap_12
XFILLER_13_317 VPWR VGND VPWR VGND sky130_ef_sc_hd__decap_12
XTAP_TAPCELL_ROW_23_301 VGND VPWR sky130_fd_sc_hd__tapvpwrvgnd_1
XFILLER_25_111 VGND VGND VPWR VPWR sky130_fd_sc_hd__fill_1
XFILLER_25_166 VGND VGND VPWR VPWR sky130_fd_sc_hd__fill_2
XFILLER_21_361 VPWR VGND VPWR VGND sky130_ef_sc_hd__decap_12
Xoutput22 net22 VGND VGND VPWR VPWR P[14] sky130_fd_sc_hd__buf_6
XFILLER_0_210 VPWR VGND VPWR VGND sky130_ef_sc_hd__decap_12
XFILLER_0_265 VPWR VGND VPWR VGND sky130_ef_sc_hd__decap_12
XFILLER_63_217 VGND VGND VPWR VPWR sky130_fd_sc_hd__decap_6
X_575_ net42 net8 _182_ _202_ _205_ VGND VGND VPWR VPWR _216_ sky130_fd_sc_hd__a41o_1
XFILLER_56_85 VPWR VGND VPWR VGND sky130_ef_sc_hd__decap_12
XFILLER_56_41 VPWR VGND VPWR VGND sky130_ef_sc_hd__decap_12
XFILLER_48_236 VGND VGND VPWR VPWR sky130_fd_sc_hd__decap_3
XTAP_TAPCELL_ROW_46_459 VGND VPWR sky130_fd_sc_hd__tapvpwrvgnd_1