*SPEF "ieee 1481-1999"
*DESIGN "mult4_SARSA_WInd_e9_SARSA_RUIDO_e9_SARSA_RUIDO_e9_SARSA_RUIDO_e9"
*DATE "14:31:14 Tuesday September 16, 2025"
*VENDOR "The OpenROAD Project"
*PROGRAM "OpenROAD"
*VERSION "edf00dff99f6c40d67a30c0e22a8191c5d2ed9d6"
*DESIGN_FLOW "NAME_SCOPE LOCAL" "PIN_CAP NONE"
*DIVIDER /
*DELIMITER :
*BUS_DELIMITER []
*T_UNIT 1 NS
*C_UNIT 1 PF
*R_UNIT 1 OHM
*L_UNIT 1 HENRY

*NAME_MAP
*1 A[0]
*2 A[1]
*3 A[2]
*4 A[3]
*5 B[0]
*6 B[1]
*7 B[2]
*8 B[3]
*9 P[0]
*10 P[1]
*11 P[2]
*12 P[3]
*13 P[4]
*14 P[5]
*15 P[6]
*16 P[7]
*19 _00_
*20 _01_
*21 _02_
*22 _03_
*23 _04_
*24 _05_
*25 _06_
*26 _07_
*27 _08_
*28 _09_
*29 _10_
*30 _11_
*31 _12_
*32 _13_
*33 _14_
*34 _15_
*35 _16_
*36 _17_
*37 _18_
*38 _19_
*39 _20_
*40 _21_
*41 _22_
*42 mul_ll\.pp0
*43 net1
*44 net10
*45 net11
*46 net12
*47 net13
*48 net14
*49 net15
*50 net16
*51 net2
*52 net3
*53 net4
*54 net5
*55 net6
*56 net7
*57 net8
*58 net9
*59 FILLER_0_15
*60 FILLER_0_27
*61 FILLER_0_29
*62 FILLER_0_3
*63 FILLER_0_34
*64 FILLER_0_42
*65 FILLER_0_49
*66 FILLER_0_55
*67 FILLER_0_57
*68 FILLER_0_63
*69 FILLER_0_75
*70 FILLER_1_15
*71 FILLER_1_27
*72 FILLER_1_3
*73 FILLER_1_35
*74 FILLER_1_44
*75 FILLER_1_50
*76 FILLER_1_66
*77 FILLER_1_74
*78 FILLER_2_19
*79 FILLER_2_24
*80 FILLER_2_29
*81 FILLER_2_38
*82 FILLER_2_7
*83 FILLER_2_70
*84 FILLER_2_76
*85 FILLER_3_15
*86 FILLER_3_3
*87 FILLER_3_34
*88 FILLER_3_46
*89 FILLER_3_54
*90 FILLER_3_57
*91 FILLER_3_69
*92 FILLER_4_19
*93 FILLER_4_27
*94 FILLER_4_29
*95 FILLER_4_37
*96 FILLER_4_49
*97 FILLER_4_61
*98 FILLER_4_7
*99 FILLER_4_74
*100 FILLER_5_15
*101 FILLER_5_22
*102 FILLER_5_34
*103 FILLER_5_46
*104 FILLER_5_54
*105 FILLER_5_68
*106 FILLER_5_7
*107 FILLER_5_76
*108 FILLER_6_15
*109 FILLER_6_40
*110 FILLER_6_52
*111 FILLER_6_68
*112 FILLER_6_7
*113 FILLER_6_76
*114 FILLER_7_15
*115 FILLER_7_27
*116 FILLER_7_3
*117 FILLER_7_43
*118 FILLER_7_55
*119 FILLER_7_57
*120 FILLER_7_65
*121 FILLER_7_74
*122 FILLER_8_15
*123 FILLER_8_27
*124 FILLER_8_3
*125 FILLER_8_36
*126 FILLER_8_48
*127 FILLER_8_60
*128 FILLER_8_70
*129 FILLER_8_78
*130 FILLER_9_15
*131 FILLER_9_23
*132 FILLER_9_29
*133 FILLER_9_3
*134 FILLER_9_41
*135 FILLER_9_53
*136 FILLER_9_57
*137 FILLER_9_69
*138 PHY_EDGE_ROW_0_Left_10
*139 PHY_EDGE_ROW_0_Right_0
*140 PHY_EDGE_ROW_1_Left_11
*141 PHY_EDGE_ROW_1_Right_1
*142 PHY_EDGE_ROW_2_Left_12
*143 PHY_EDGE_ROW_2_Right_2
*144 PHY_EDGE_ROW_3_Left_13
*145 PHY_EDGE_ROW_3_Right_3
*146 PHY_EDGE_ROW_4_Left_14
*147 PHY_EDGE_ROW_4_Right_4
*148 PHY_EDGE_ROW_5_Left_15
*149 PHY_EDGE_ROW_5_Right_5
*150 PHY_EDGE_ROW_6_Left_16
*151 PHY_EDGE_ROW_6_Right_6
*152 PHY_EDGE_ROW_7_Left_17
*153 PHY_EDGE_ROW_7_Right_7
*154 PHY_EDGE_ROW_8_Left_18
*155 PHY_EDGE_ROW_8_Right_8
*156 PHY_EDGE_ROW_9_Left_19
*157 PHY_EDGE_ROW_9_Right_9
*158 TAP_TAPCELL_ROW_0_20
*159 TAP_TAPCELL_ROW_0_21
*160 TAP_TAPCELL_ROW_1_22
*161 TAP_TAPCELL_ROW_2_23
*162 TAP_TAPCELL_ROW_3_24
*163 TAP_TAPCELL_ROW_4_25
*164 TAP_TAPCELL_ROW_5_26
*165 TAP_TAPCELL_ROW_6_27
*166 TAP_TAPCELL_ROW_7_28
*167 TAP_TAPCELL_ROW_8_29
*168 TAP_TAPCELL_ROW_9_30
*169 TAP_TAPCELL_ROW_9_31
*170 _23_
*171 _24_
*172 _25_
*173 _26_
*174 _27_
*175 _28_
*176 _29_
*177 _30_
*178 _31_
*179 _32_
*180 _33_
*181 _34_
*182 _35_
*183 _36_
*184 _37_
*185 _38_
*186 _39_
*187 _40_
*188 _41_
*189 _42_
*190 _43_
*191 _44_
*192 _45_
*193 _46_
*194 _47_
*195 _48_
*196 _49_
*197 _50_
*198 _51_
*199 _52_
*200 _53_
*201 _54_
*202 input1
*203 input2
*204 input3
*205 input4
*206 input5
*207 input6
*208 input7
*209 input8
*210 output10
*211 output11
*212 output12
*213 output13
*214 output14
*215 output15
*216 output16
*217 output9

*PORTS
A[0] I
A[1] I
A[2] I
A[3] I
B[0] I
B[1] I
B[2] I
B[3] I
P[0] O
P[1] O
P[2] O
P[3] O
P[4] O
P[5] O
P[6] O
P[7] O

*D_NET *1 0.000788371
*CONN
*P A[0] I
*I *202:A I *D sky130_fd_sc_hd__buf_1
*CAP
1 A[0] 0.000384993
2 *202:A 0.000384993
3 *202:A *43:10 1.83847e-05
*RES
1 A[0] *202:A 10.35 
*END

*D_NET *2 0.000586984
*CONN
*P A[1] I
*I *203:A I *D sky130_fd_sc_hd__buf_1
*CAP
1 A[1] 0.000196505
2 *203:A 0.000196505
3 *203:A *205:A 8.28789e-05
4 *203:A *208:A 8.28789e-05
5 *203:A *56:14 2.82154e-05
6 *203:A *57:77 0
*RES
1 A[1] *203:A 6.12177 
*END

*D_NET *3 0.000669018
*CONN
*P A[2] I
*I *204:A I *D sky130_fd_sc_hd__clkbuf_2
*CAP
1 A[2] 0.000305437
2 *204:A 0.000305437
3 *204:A P[4] 2.85068e-05
4 *204:A *209:A 2.96366e-05
*RES
1 A[2] *204:A 7.9443 
*END

*D_NET *4 0.000478478
*CONN
*P A[3] I
*I *205:A I *D sky130_fd_sc_hd__buf_1
*CAP
1 A[3] 0.000159278
2 *205:A 0.000159278
3 *205:A P[7] 7.70436e-05
4 *205:A *57:77 0
5 *203:A *205:A 8.28789e-05
*RES
1 A[3] *205:A 5.35677 
*END

*D_NET *5 0.000791507
*CONN
*P B[0] I
*I *206:A I *D sky130_fd_sc_hd__clkbuf_1
*CAP
1 B[0] 0.000386561
2 *206:A 0.000386561
3 *206:A P[0] 0
4 *206:A P[2] 0
5 *206:A *54:10 1.83847e-05
*RES
1 B[0] *206:A 10.35 
*END

*D_NET *6 0.000557697
*CONN
*P B[1] I
*I *207:A I *D sky130_fd_sc_hd__clkbuf_2
*CAP
1 B[1] 0.00023653
2 *207:A 0.00023653
3 *207:A P[1] 8.4638e-05
*RES
1 B[1] *207:A 5.67003 
*END

*D_NET *7 0.000606469
*CONN
*P B[2] I
*I *208:A I *D sky130_fd_sc_hd__buf_1
*CAP
1 B[2] 0.000219127
2 *208:A 0.000219127
3 *208:A P[1] 8.53361e-05
4 *208:A *57:77 0
5 *203:A *208:A 8.28789e-05
*RES
1 B[2] *208:A 6.37677 
*END

*D_NET *8 0.000679924
*CONN
*P B[3] I
*I *209:A I *D sky130_fd_sc_hd__clkbuf_2
*CAP
1 B[3] 0.000310325
2 *209:A 0.000310325
3 *209:A P[3] 2.96366e-05
4 *204:A *209:A 2.96366e-05
*RES
1 B[3] *209:A 7.9443 
*END

*D_NET *9 0.000810725
*CONN
*P P[0] O
*I *217:X O *D sky130_fd_sc_hd__buf_2
*CAP
1 P[0] 0.000405362
2 *217:X 0.000405362
3 *206:A P[0] 0
*RES
1 *217:X P[0] 10.185 
*END

*D_NET *10 0.000497281
*CONN
*P P[1] O
*I *210:X O *D sky130_fd_sc_hd__buf_2
*CAP
1 P[1] 0.000163653
2 *210:X 0.000163653
3 *207:A P[1] 8.4638e-05
4 *208:A P[1] 8.53361e-05
*RES
1 *210:X P[1] 5.16003 
*END

*D_NET *11 0.000868071
*CONN
*P P[2] O
*I *211:X O *D sky130_fd_sc_hd__buf_2
*CAP
1 P[2] 0.000434035
2 *211:X 0.000434035
3 *206:A P[2] 0
*RES
1 *211:X P[2] 10.74 
*END

*D_NET *12 0.000590485
*CONN
*P P[3] O
*I *212:X O *D sky130_fd_sc_hd__buf_2
*CAP
1 P[3] 0.000280424
2 *212:X 0.000280424
3 *209:A P[3] 2.96366e-05
*RES
1 *212:X P[3] 7.1793 
*END

*D_NET *13 0.000489465
*CONN
*P P[4] O
*I *213:X O *D sky130_fd_sc_hd__buf_2
*CAP
1 P[4] 0.000230479
2 *213:X 0.000230479
3 *204:A P[4] 2.85068e-05
*RES
1 *213:X P[4] 4.90503 
*END

*D_NET *14 0.00085605
*CONN
*P P[5] O
*I *214:X O *D sky130_fd_sc_hd__buf_2
*CAP
1 P[5] 0.000428025
2 *214:X 0.000428025
*RES
1 *214:X P[5] 11.205 
*END

*D_NET *15 0.000582239
*CONN
*P P[6] O
*I *215:X O *D sky130_fd_sc_hd__buf_2
*CAP
1 P[6] 0.000244846
2 *215:X 0.000244846
3 P[6] P[7] 9.25475e-05
4 P[6] *215:A 0
*RES
1 *215:X P[6] 5.92503 
*END

*D_NET *16 0.000469271
*CONN
*P P[7] O
*I *216:X O *D sky130_fd_sc_hd__buf_2
*CAP
1 P[7] 0.00014984
2 *216:X 0.00014984
3 P[7] *177:B 0
4 P[6] P[7] 9.25475e-05
5 *205:A P[7] 7.70436e-05
*RES
1 *216:X P[7] 4.90503 
*END

*D_NET *19 0.00326179
*CONN
*I *174:B1 I *D sky130_fd_sc_hd__o2bb2a_1
*I *173:A_N I *D sky130_fd_sc_hd__and4bb_1
*I *198:B1 I *D sky130_fd_sc_hd__a211oi_1
*I *185:A1 I *D sky130_fd_sc_hd__o211a_1
*I *171:X O *D sky130_fd_sc_hd__and4_1
*CAP
1 *174:B1 0
2 *173:A_N 2.08101e-05
3 *198:B1 0.00040794
4 *185:A1 6.4843e-05
5 *171:X 0.000128358
6 *19:12 0.000637712
7 *19:8 0.000344515
8 *19:6 0.000287135
9 *185:A1 *185:C1 1.14169e-05
10 *185:A1 *198:A2 0.00016031
11 *185:A1 *21:8 0.000129217
12 *185:A1 *52:50 5.83121e-06
13 *198:B1 *182:A 7.11235e-06
14 *198:B1 *198:A2 0.000110205
15 *198:B1 *198:C1 8.49205e-05
16 *198:B1 *32:23 7.06865e-05
17 *19:6 *171:A 1.34503e-05
18 *19:6 *55:20 0.00015211
19 *19:6 *55:30 1.61831e-05
20 *19:8 *171:A 1.47347e-05
21 *19:8 *173:B_N 0.000100543
22 *19:8 *173:C 3.66286e-05
23 *19:8 *174:A1_N 9.77385e-05
24 *19:12 *173:C 0.000202664
25 *19:12 *21:8 8.52883e-05
26 *19:12 *52:50 5.65512e-05
27 *19:12 *52:57 1.48888e-05
*RES
1 *171:X *19:6 4.12 
2 *19:6 *19:8 3.21 
3 *19:8 *19:12 3.915 
4 *19:12 *185:A1 3.775 
5 *19:12 *198:B1 10.79 
6 *19:8 *173:A_N 1.96 
7 *19:6 *174:B1 1.6 
*END

*D_NET *20 0.00124517
*CONN
*I *174:B2 I *D sky130_fd_sc_hd__o2bb2a_1
*I *173:B_N I *D sky130_fd_sc_hd__and4bb_1
*I *172:Y O *D sky130_fd_sc_hd__a22oi_1
*CAP
1 *174:B2 0
2 *173:B_N 0.000119376
3 *172:Y 0.000168429
4 *20:12 0.000287805
5 *173:B_N *171:A 5.20263e-05
6 *173:B_N *173:C 4.82863e-05
7 *173:B_N *174:A1_N 8.68626e-05
8 *173:B_N *52:57 0.000158066
9 *173:B_N *55:20 0
10 *20:12 *171:A 0.000114492
11 *20:12 *200:A 4.82863e-05
12 *20:12 *51:22 0
13 *20:12 *52:65 0
14 *20:12 *54:10 0
15 *20:12 *54:21 0
16 *20:12 *55:30 6.10014e-05
17 *19:8 *173:B_N 0.000100543
*RES
1 *172:Y *20:12 8.45 
2 *20:12 *173:B_N 4.825 
3 *20:12 *174:B2 1.6 
*END

*D_NET *21 0.00245363
*CONN
*I *198:C1 I *D sky130_fd_sc_hd__a211oi_1
*I *185:A2 I *D sky130_fd_sc_hd__o211a_1
*I *175:A I *D sky130_fd_sc_hd__nor2_1
*I *173:X O *D sky130_fd_sc_hd__and4bb_1
*CAP
1 *198:C1 0.000143601
2 *185:A2 0
3 *175:A 0.00013882
4 *173:X 0.000118425
5 *21:12 0.00021784
6 *21:8 0.000341045
7 *175:A *184:B1 5.93761e-05
8 *175:A *31:12 7.14241e-05
9 *175:A *43:20 2.20014e-05
10 *175:A *52:50 0.000274431
11 *175:A *55:36 0.000310177
12 *198:C1 *182:A 7.26037e-05
13 *198:C1 *184:B1 5.38986e-05
14 *21:8 *185:B1 5.83121e-06
15 *21:8 *185:C1 2.26024e-05
16 *21:8 *199:A 0.000197826
17 *21:8 *32:23 7.37711e-05
18 *21:12 *184:B1 3.05295e-05
19 *185:A1 *21:8 0.000129217
20 *198:B1 *198:C1 8.49205e-05
21 *19:12 *21:8 8.52883e-05
*RES
1 *173:X *21:8 7.155 
2 *21:8 *21:12 1.065 
3 *21:12 *175:A 8.355 
4 *21:12 *185:A2 3.6 
5 *21:8 *198:C1 6.48 
*END

*D_NET *22 0.00111284
*CONN
*I *175:B I *D sky130_fd_sc_hd__nor2_1
*I *174:X O *D sky130_fd_sc_hd__o2bb2a_1
*CAP
1 *175:B 0.000174864
2 *174:X 0.000174864
3 *175:B *171:A 0
4 *175:B *43:20 0.000207687
5 *175:B *52:65 4.94404e-05
6 *175:B *54:21 0.000155928
7 *175:B *55:36 0.000350053
*RES
1 *174:X *175:B 12.81 
*END

*D_NET *23 0.000855417
*CONN
*I *181:A I *D sky130_fd_sc_hd__xor2_1
*I *176:Y O *D sky130_fd_sc_hd__nand2_1
*CAP
1 *181:A 0.000245793
2 *176:Y 0.000245793
3 *181:A *180:A1 8.65905e-05
4 *181:A *180:B1_N 8.23457e-05
5 *181:A *181:B 5.30673e-05
6 *181:A *40:10 5.04219e-05
7 *181:A *53:26 9.14049e-05
8 *181:A *57:77 0
*RES
1 *176:Y *181:A 11.895 
*END

*D_NET *24 0.000537619
*CONN
*I *197:A I *D sky130_fd_sc_hd__xnor2_1
*I *177:Y O *D sky130_fd_sc_hd__nand2_1
*CAP
1 *197:A 0.000201997
2 *177:Y 0.000201997
3 *197:A *197:B 0.000133625
*RES
1 *177:Y *197:A 10.755 
*END

*D_NET *25 0.00117629
*CONN
*I *180:A2 I *D sky130_fd_sc_hd__a21bo_1
*I *190:B1 I *D sky130_fd_sc_hd__a32o_1
*I *178:X O *D sky130_fd_sc_hd__and3_1
*CAP
1 *180:A2 9.88461e-05
2 *190:B1 6.14403e-06
3 *178:X 0.000310348
4 *25:10 0.000415338
5 *180:A2 *180:B1_N 4.50017e-05
6 *180:A2 *26:10 1.52184e-05
7 *180:A2 *36:12 0
8 *180:A2 *53:26 1.73877e-05
9 *190:B1 *190:A1 2.09749e-05
10 *190:B1 *190:A3 2.09749e-05
11 *25:10 *26:10 7.44375e-05
12 *25:10 *51:16 9.2741e-05
13 *25:10 *51:22 4.41506e-05
14 *25:10 *52:65 0
15 *25:10 *57:54 1.47256e-05
*RES
1 *178:X *25:10 7.755 
2 *25:10 *190:B1 3.8025 
3 *25:10 *180:A2 5.49 
*END

*D_NET *26 0.00176478
*CONN
*I *180:B1_N I *D sky130_fd_sc_hd__a21bo_1
*I *190:A3 I *D sky130_fd_sc_hd__a32o_1
*I *179:X O *D sky130_fd_sc_hd__a22o_1
*CAP
1 *180:B1_N 0.000132829
2 *190:A3 5.6057e-05
3 *179:X 0.000181668
4 *26:10 0.000370554
5 *180:B1_N *40:10 4.40325e-06
6 *180:B1_N *53:26 9.14049e-05
7 *190:A3 *176:B 0.000231628
8 *190:A3 *190:A1 4.43376e-05
9 *190:A3 *190:A2 3.95724e-05
10 *190:A3 *190:B2 5.83121e-06
11 *26:10 *179:B1 1.07797e-05
12 *26:10 *51:22 7.30547e-05
13 *26:10 *52:65 0
14 *26:10 *53:26 3.32246e-05
15 *26:10 *56:35 0.000199734
16 *26:10 *57:54 4.0843e-05
17 *26:10 *57:62 1.08758e-05
18 *180:A2 *180:B1_N 4.50017e-05
19 *180:A2 *26:10 1.52184e-05
20 *181:A *180:B1_N 8.23457e-05
21 *190:B1 *190:A3 2.09749e-05
22 *25:10 *26:10 7.44375e-05
*RES
1 *179:X *26:10 7.56 
2 *26:10 *190:A3 5.79 
3 *26:10 *180:B1_N 5.865 
*END

*D_NET *27 0.000135094
*CONN
*I *181:B I *D sky130_fd_sc_hd__xor2_1
*I *180:X O *D sky130_fd_sc_hd__a21bo_1
*CAP
1 *181:B 1.44798e-05
2 *180:X 1.44798e-05
3 *181:B *40:10 5.30673e-05
4 *181:A *181:B 5.30673e-05
*RES
1 *180:X *181:B 3.995 
*END

*D_NET *28 0.00200053
*CONN
*I *195:A1 I *D sky130_fd_sc_hd__a221o_1
*I *186:B1 I *D sky130_fd_sc_hd__o21a_1
*I *187:A I *D sky130_fd_sc_hd__nor2_1
*I *181:X O *D sky130_fd_sc_hd__xor2_1
*CAP
1 *195:A1 0
2 *186:B1 9.40853e-05
3 *187:A 0
4 *181:X 0.00027049
5 *28:16 0.000159004
6 *28:8 0.000335408
7 *186:B1 *186:A1 8.59211e-05
8 *186:B1 *195:B2 2.26862e-05
9 *186:B1 *35:6 0.000277223
10 *28:8 *195:A2 3.31935e-05
11 *28:8 *195:B2 8.50369e-06
12 *28:8 *35:29 8.696e-05
13 *28:8 *40:10 0.000323253
14 *28:16 *186:A1 2.04101e-05
15 *28:16 *195:A2 0.000172476
16 *28:16 *195:B2 4.8381e-05
17 *28:16 *35:6 1.09281e-05
18 *28:16 *35:29 5.16046e-05
*RES
1 *181:X *28:8 7.93 
2 *28:8 *28:16 2.655 
3 *28:16 *187:A 1.6 
4 *28:16 *186:B1 4.84 
5 *28:8 *195:A1 1.6 
*END

*D_NET *29 0.00145371
*CONN
*I *195:A2 I *D sky130_fd_sc_hd__a221o_1
*I *186:A1 I *D sky130_fd_sc_hd__o21a_1
*I *182:X O *D sky130_fd_sc_hd__and4_1
*CAP
1 *195:A2 0.000180929
2 *186:A1 0.000130315
3 *182:X 0.000190631
4 *29:12 0.000501875
5 *29:12 *182:C 2.11084e-05
6 *29:12 *188:A1 0
7 *29:12 *188:A2 0.000116853
8 *29:12 *32:23 0
9 *186:B1 *186:A1 8.59211e-05
10 *28:8 *195:A2 3.31935e-05
11 *28:16 *186:A1 2.04101e-05
12 *28:16 *195:A2 0.000172476
*RES
1 *182:X *29:12 8.96 
2 *29:12 *186:A1 3.91 
3 *29:12 *195:A2 4.51375 
*END

*D_NET *30 0.00261637
*CONN
*I *198:A1 I *D sky130_fd_sc_hd__a211oi_1
*I *188:A1 I *D sky130_fd_sc_hd__a21oi_1
*I *185:B1 I *D sky130_fd_sc_hd__o211a_1
*I *183:Y O *D sky130_fd_sc_hd__nand4_1
*CAP
1 *198:A1 0.000174339
2 *188:A1 0.000349148
3 *185:B1 0.000187334
4 *183:Y 0
5 *30:6 0.000536482
6 *30:4 0.000174339
7 *185:B1 *182:B 9.50342e-06
8 *185:B1 *185:C1 7.24394e-05
9 *185:B1 *199:A 0.000203607
10 *185:B1 *43:56 0.000136884
11 *185:B1 *52:33 2.84137e-05
12 *185:B1 *55:42 0.00020779
13 *188:A1 *182:B 8.35683e-05
14 *188:A1 *188:A2 8.57321e-05
15 *188:A1 *188:B1 8.65905e-05
16 *188:A1 *189:B 0.000108122
17 *188:A1 *52:33 3.90349e-05
18 *198:A1 *182:A 0.000118475
19 *198:A1 *199:B 8.73389e-06
20 *21:8 *185:B1 5.83121e-06
21 *29:12 *188:A1 0
*RES
1 *183:Y *30:4 1.6 
2 *30:4 *30:6 2 
3 *30:6 *185:B1 8.895 
4 *30:6 *188:A1 9.96 
5 *30:4 *198:A1 3.775 
*END

*D_NET *31 0.00161119
*CONN
*I *198:A2 I *D sky130_fd_sc_hd__a211oi_1
*I *185:C1 I *D sky130_fd_sc_hd__o211a_1
*I *184:X O *D sky130_fd_sc_hd__a22o_1
*CAP
1 *198:A2 0.000277153
2 *185:C1 0.00011008
3 *184:X 6.3402e-05
4 *31:12 0.000450636
5 *185:C1 *199:A 0
6 *198:A2 *182:A 0.000123955
7 *198:A2 *184:B1 0
8 *198:A2 *32:23 0.000137571
9 *175:A *31:12 7.14241e-05
10 *185:A1 *185:C1 1.14169e-05
11 *185:A1 *198:A2 0.00016031
12 *185:B1 *185:C1 7.24394e-05
13 *198:B1 *198:A2 0.000110205
14 *21:8 *185:C1 2.26024e-05
*RES
1 *184:X *31:12 6.83 
2 *31:12 *185:C1 3.445 
3 *31:12 *198:A2 11.57 
*END

*D_NET *32 0.00386874
*CONN
*I *187:B I *D sky130_fd_sc_hd__nor2_1
*I *186:A2 I *D sky130_fd_sc_hd__o21a_1
*I *195:B1 I *D sky130_fd_sc_hd__a221o_1
*I *199:A I *D sky130_fd_sc_hd__nor2_1
*I *185:X O *D sky130_fd_sc_hd__o211a_1
*CAP
1 *187:B 5.02128e-05
2 *186:A2 8.10885e-05
3 *195:B1 0
4 *199:A 0.000443764
5 *185:X 0
6 *32:36 0.000364508
7 *32:23 0.000786389
8 *32:4 0.000996946
9 *186:A2 *35:6 0.000124895
10 *187:B *188:A2 9.50342e-06
11 *187:B *188:B1 0
12 *187:B *194:A 0
13 *187:B *195:C1 2.25075e-05
14 *32:23 *182:A 4.04686e-05
15 *32:23 *184:B1 0
16 *32:36 *188:A2 0
17 *32:36 *195:C1 2.30184e-05
18 *32:36 *35:6 0.000112349
19 *32:36 *35:29 0.000129631
20 *185:B1 *199:A 0.000203607
21 *185:C1 *199:A 0
22 *198:A2 *32:23 0.000137571
23 *198:B1 *32:23 7.06865e-05
24 *21:8 *199:A 0.000197826
25 *21:8 *32:23 7.37711e-05
26 *29:12 *32:23 0
*RES
1 *185:X *32:4 1.6 
2 *32:4 *199:A 7.405 
3 *32:4 *32:23 11.63 
4 *32:23 *195:B1 3.6 
5 *32:23 *32:36 5.3 
6 *32:36 *186:A2 2.74 
7 *32:36 *187:B 6.47 
*END

*D_NET *33 0.00166531
*CONN
*I *194:A I *D sky130_fd_sc_hd__xnor2_1
*I *188:B1 I *D sky130_fd_sc_hd__a21oi_1
*I *186:X O *D sky130_fd_sc_hd__o21a_1
*CAP
1 *194:A 0.000458944
2 *188:B1 0.000193609
3 *186:X 0
4 *33:6 0.000652553
5 *188:B1 *188:A2 4.99619e-05
6 *188:B1 *189:A 0
7 *188:B1 *189:B 0.000137571
8 *188:B1 *213:A 0
9 *194:A *194:B 8.60799e-05
10 *194:A *195:C1 0
11 *187:B *188:B1 0
12 *187:B *194:A 0
13 *188:A1 *188:B1 8.65905e-05
*RES
1 *186:X *33:6 3.6 
2 *33:6 *188:B1 7.485 
3 *33:6 *194:A 10.92 
*END

*D_NET *34 0.00084974
*CONN
*I *188:A2 I *D sky130_fd_sc_hd__a21oi_1
*I *187:Y O *D sky130_fd_sc_hd__nor2_1
*CAP
1 *188:A2 0.000291078
2 *187:Y 0.000291078
3 *188:A2 *189:B 0
4 *188:A2 *195:C1 5.53249e-06
5 *187:B *188:A2 9.50342e-06
6 *188:A1 *188:A2 8.57321e-05
7 *188:B1 *188:A2 4.99619e-05
8 *29:12 *188:A2 0.000116853
9 *32:36 *188:A2 0
*RES
1 *187:Y *188:A2 12.3 
*END

*D_NET *35 0.00188328
*CONN
*I *191:A I *D sky130_fd_sc_hd__nor2_1
*I *192:A I *D sky130_fd_sc_hd__and2_1
*I *195:B2 I *D sky130_fd_sc_hd__a221o_1
*I *189:X O *D sky130_fd_sc_hd__and2_1
*CAP
1 *191:A 1.69055e-05
2 *192:A 0
3 *195:B2 3.31158e-05
4 *189:X 0.000140181
5 *35:29 0.000222146
6 *35:6 0.000378537
7 *191:A *192:B 6.73807e-05
8 *191:A *193:A 2.93678e-05
9 *35:6 *189:B 4.66742e-05
10 *35:29 *192:B 4.82919e-05
11 *35:29 *193:A 2.75229e-05
12 *186:A2 *35:6 0.000124895
13 *186:B1 *195:B2 2.26862e-05
14 *186:B1 *35:6 0.000277223
15 *28:8 *195:B2 8.50369e-06
16 *28:8 *35:29 8.696e-05
17 *28:16 *195:B2 4.8381e-05
18 *28:16 *35:6 1.09281e-05
19 *28:16 *35:29 5.16046e-05
20 *32:36 *35:6 0.000112349
21 *32:36 *35:29 0.000129631
*RES
1 *189:X *35:6 5.5 
2 *35:6 *195:B2 2.87875 
3 *35:6 *35:29 8.26 
4 *35:29 *192:A 1.6 
5 *35:29 *191:A 2.41 
*END

*D_NET *36 0.00167413
*CONN
*I *191:B I *D sky130_fd_sc_hd__nor2_1
*I *192:B I *D sky130_fd_sc_hd__and2_1
*I *190:X O *D sky130_fd_sc_hd__a32o_1
*CAP
1 *191:B 0
2 *192:B 0.000151925
3 *190:X 0.000602377
4 *36:12 0.000754301
5 *192:B *193:A 2.93447e-05
6 *192:B *195:C1 2.05089e-05
7 *36:12 *53:20 0
8 *180:A2 *36:12 0
9 *191:A *192:B 6.73807e-05
10 *35:29 *192:B 4.82919e-05
*RES
1 *190:X *36:12 14.555 
2 *36:12 *192:B 4.66 
3 *36:12 *191:B 1.6 
*END

*D_NET *37 0.000557642
*CONN
*I *193:A I *D sky130_fd_sc_hd__or2_1
*I *191:Y O *D sky130_fd_sc_hd__nor2_1
*CAP
1 *193:A 0.000197056
2 *191:Y 0.000197056
3 *193:A *195:C1 2.83649e-05
4 *193:A *38:6 4.89295e-05
5 *191:A *193:A 2.93678e-05
6 *192:B *193:A 2.93447e-05
7 *35:29 *193:A 2.75229e-05
*RES
1 *191:Y *193:A 6.41 
*END

*D_NET *38 0.000597289
*CONN
*I *193:B I *D sky130_fd_sc_hd__or2_1
*I *195:C1 I *D sky130_fd_sc_hd__a221o_1
*I *192:X O *D sky130_fd_sc_hd__and2_1
*CAP
1 *193:B 0
2 *195:C1 0.000206101
3 *192:X 1.8113e-05
4 *38:6 0.000224214
5 *187:B *195:C1 2.25075e-05
6 *188:A2 *195:C1 5.53249e-06
7 *192:B *195:C1 2.05089e-05
8 *193:A *195:C1 2.83649e-05
9 *193:A *38:6 4.89295e-05
10 *194:A *195:C1 0
11 *32:36 *195:C1 2.30184e-05
*RES
1 *192:X *38:6 2.05 
2 *38:6 *195:C1 8.9 
3 *38:6 *193:B 1.6 
*END

*D_NET *39 0.000373731
*CONN
*I *194:B I *D sky130_fd_sc_hd__xnor2_1
*I *193:X O *D sky130_fd_sc_hd__or2_1
*CAP
1 *194:B 0.000143825
2 *193:X 0.000143825
3 *194:A *194:B 8.60799e-05
*RES
1 *193:X *194:B 9.63 
*END

*D_NET *40 0.00276042
*CONN
*I *197:B I *D sky130_fd_sc_hd__xnor2_1
*I *196:C I *D sky130_fd_sc_hd__and3_1
*I *195:X O *D sky130_fd_sc_hd__a221o_1
*CAP
1 *197:B 0.000140351
2 *196:C 1.06329e-05
3 *195:X 0.00090871
4 *40:10 0.00105969
5 *196:C *196:A 1.70906e-05
6 *40:10 *180:A1 3.45588e-05
7 *40:10 *53:20 2.46089e-05
8 *40:10 *57:77 0
9 *180:B1_N *40:10 4.40325e-06
10 *181:A *40:10 5.04219e-05
11 *181:B *40:10 5.30673e-05
12 *197:A *197:B 0.000133625
13 *28:8 *40:10 0.000323253
*RES
1 *195:X *40:10 15.6 
2 *40:10 *196:C 3.765 
3 *40:10 *197:B 6.285 
*END

*D_NET *41 0.000663194
*CONN
*I *199:B I *D sky130_fd_sc_hd__nor2_1
*I *198:Y O *D sky130_fd_sc_hd__a211oi_1
*CAP
1 *199:B 0.00029294
2 *198:Y 0.00029294
3 *199:B *182:A 2.75229e-05
4 *199:B *183:C 4.10576e-05
5 *199:B *55:42 0
6 *198:A1 *199:B 8.73389e-06
*RES
1 *198:Y *199:B 11.61 
*END

*D_NET *42 0.000705955
*CONN
*I *200:A I *D sky130_fd_sc_hd__clkbuf_1
*I *170:X O *D sky130_fd_sc_hd__and2_1
*CAP
1 *200:A 0.000173397
2 *170:X 0.000173397
3 *200:A *172:A2 7.32775e-05
4 *200:A *172:B1 4.8061e-05
5 *200:A *43:27 8.8266e-05
6 *200:A *55:36 0.00010127
7 *20:12 *200:A 4.82863e-05
*RES
1 *170:X *200:A 7.115 
*END

*D_NET *43 0.00501355
*CONN
*I *182:A I *D sky130_fd_sc_hd__and4_1
*I *183:A I *D sky130_fd_sc_hd__nand4_1
*I *184:B2 I *D sky130_fd_sc_hd__a22o_1
*I *172:B2 I *D sky130_fd_sc_hd__a22oi_1
*I *171:A I *D sky130_fd_sc_hd__and4_1
*I *170:B I *D sky130_fd_sc_hd__and2_1
*I *202:X O *D sky130_fd_sc_hd__buf_1
*CAP
1 *182:A 0.000262679
2 *183:A 0
3 *184:B2 0
4 *172:B2 0
5 *171:A 0.000175338
6 *170:B 0
7 *202:X 0.000303862
8 *43:56 0.000385588
9 *43:27 0.000210641
10 *43:20 0.000548015
11 *43:14 0.000530568
12 *43:10 0.000444626
13 *171:A *52:65 2.97004e-06
14 *171:A *55:20 1.69451e-05
15 *182:A *184:B1 0
16 *43:10 *52:33 1.70935e-05
17 *43:14 *55:42 4.82919e-05
18 *43:20 *184:A2 0
19 *43:20 *211:A 8.52845e-05
20 *43:20 *52:33 0.000126054
21 *43:20 *52:50 0.000301686
22 *43:20 *55:36 3.70915e-05
23 *43:20 *55:42 1.12578e-05
24 *43:27 *55:36 0.000163199
25 *43:56 *52:33 0.000183979
26 *43:56 *55:42 0.000100316
27 *173:B_N *171:A 5.20263e-05
28 *175:A *43:20 2.20014e-05
29 *175:B *171:A 0
30 *175:B *43:20 0.000207687
31 *185:B1 *43:56 0.000136884
32 *198:A1 *182:A 0.000118475
33 *198:A2 *182:A 0.000123955
34 *198:B1 *182:A 7.11235e-06
35 *198:C1 *182:A 7.26037e-05
36 *199:B *182:A 2.75229e-05
37 *200:A *43:27 8.8266e-05
38 *202:A *43:10 1.83847e-05
39 *19:6 *171:A 1.34503e-05
40 *19:8 *171:A 1.47347e-05
41 *20:12 *171:A 0.000114492
42 *32:23 *182:A 4.04686e-05
*RES
1 *202:X *43:10 7.41 
2 *43:10 *43:14 2.45 
3 *43:14 *43:20 9.96 
4 *43:20 *170:B 1.6 
5 *43:20 *43:27 1.485 
6 *43:27 *171:A 8.48 
7 *43:27 *172:B2 1.6 
8 *43:14 *184:B2 1.6 
9 *43:10 *43:56 5.93 
10 *43:56 *183:A 1.6 
11 *43:56 *182:A 11.015 
*END

*D_NET *44 0.00045123
*CONN
*I *210:A I *D sky130_fd_sc_hd__buf_2
*I *201:X O *D sky130_fd_sc_hd__clkbuf_1
*CAP
1 *210:A 0.000225615
2 *201:X 0.000225615
3 *210:A *55:20 0
*RES
1 *201:X *210:A 6.68 
*END

*D_NET *45 0.000413441
*CONN
*I *211:A I *D sky130_fd_sc_hd__buf_2
*I *175:Y O *D sky130_fd_sc_hd__nor2_1
*CAP
1 *211:A 0.000164078
2 *175:Y 0.000164078
3 *43:20 *211:A 8.52845e-05
*RES
1 *175:Y *211:A 9.63 
*END

*D_NET *46 0.000793713
*CONN
*I *212:A I *D sky130_fd_sc_hd__buf_2
*I *199:Y O *D sky130_fd_sc_hd__nor2_1
*CAP
1 *212:A 0.000396857
2 *199:Y 0.000396857
*RES
1 *199:Y *212:A 9.185 
*END

*D_NET *47 0.00104955
*CONN
*I *213:A I *D sky130_fd_sc_hd__buf_2
*I *188:Y O *D sky130_fd_sc_hd__a21oi_1
*CAP
1 *213:A 0.000427808
2 *188:Y 0.000427808
3 *213:A *189:A 0.00011686
4 *213:A *189:B 0
5 *213:A *52:10 7.70758e-05
6 *188:B1 *213:A 0
*RES
1 *188:Y *213:A 13.95 
*END

*D_NET *48 0.00034622
*CONN
*I *214:A I *D sky130_fd_sc_hd__buf_2
*I *194:Y O *D sky130_fd_sc_hd__xnor2_1
*CAP
1 *214:A 0.00017311
2 *194:Y 0.00017311
*RES
1 *194:Y *214:A 9.885 
*END

*D_NET *49 0.000620842
*CONN
*I *215:A I *D sky130_fd_sc_hd__buf_2
*I *197:Y O *D sky130_fd_sc_hd__xnor2_1
*CAP
1 *215:A 0.000310421
2 *197:Y 0.000310421
3 P[6] *215:A 0
*RES
1 *197:Y *215:A 11.955 
*END

*D_NET *50 0.000497947
*CONN
*I *216:A I *D sky130_fd_sc_hd__buf_2
*I *196:X O *D sky130_fd_sc_hd__and3_1
*CAP
1 *216:A 0.000170827
2 *196:X 0.000170827
3 *216:A *196:A 4.99619e-05
4 *216:A *53:14 6.97034e-05
5 *216:A *57:77 3.66286e-05
*RES
1 *196:X *216:A 6.44 
*END

*D_NET *51 0.00258169
*CONN
*I *178:B I *D sky130_fd_sc_hd__and3_1
*I *179:A1 I *D sky130_fd_sc_hd__a22o_1
*I *171:C I *D sky130_fd_sc_hd__and4_1
*I *172:A2 I *D sky130_fd_sc_hd__a22oi_1
*I *203:X O *D sky130_fd_sc_hd__buf_1
*CAP
1 *178:B 0
2 *179:A1 1.68577e-05
3 *171:C 0
4 *172:A2 6.44119e-05
5 *203:X 0.000239239
6 *51:22 0.000325708
7 *51:16 0.000382243
8 *51:12 0.000343328
9 *172:A2 *172:B1 0.000167049
10 *172:A2 *55:30 4.19967e-05
11 *179:A1 *179:B2 4.00541e-06
12 *179:A1 *57:62 9.53428e-06
13 *51:12 *179:B1 0
14 *51:12 *56:14 0.000235568
15 *51:12 *57:77 7.23533e-05
16 *51:16 *178:A 7.60965e-05
17 *51:16 *55:86 2.75229e-05
18 *51:16 *57:62 2.45351e-05
19 *51:22 *172:B1 9.50342e-06
20 *51:22 *52:65 0
21 *51:22 *56:35 0.000192741
22 *51:22 *57:54 4.66108e-05
23 *51:22 *57:62 1.91597e-05
24 *200:A *172:A2 7.32775e-05
25 *20:12 *51:22 0
26 *25:10 *51:16 9.2741e-05
27 *25:10 *51:22 4.41506e-05
28 *26:10 *51:22 7.30547e-05
*RES
1 *203:X *51:12 8.99 
2 *51:12 *51:16 2.79 
3 *51:16 *51:22 7.745 
4 *51:22 *172:A2 5.64 
5 *51:22 *171:C 3.6 
6 *51:16 *179:A1 1.96 
7 *51:12 *178:B 1.6 
*END

*D_NET *52 0.00832988
*CONN
*I *189:A I *D sky130_fd_sc_hd__and2_1
*I *182:C I *D sky130_fd_sc_hd__and4_1
*I *174:A2_N I *D sky130_fd_sc_hd__o2bb2a_1
*I *190:A2 I *D sky130_fd_sc_hd__a32o_1
*I *176:B I *D sky130_fd_sc_hd__nand2_1
*I *173:D I *D sky130_fd_sc_hd__and4bb_1
*I *184:A2 I *D sky130_fd_sc_hd__a22o_1
*I *183:C I *D sky130_fd_sc_hd__nand4_1
*I *204:X O *D sky130_fd_sc_hd__clkbuf_2
*CAP
1 *189:A 7.79261e-05
2 *182:C 5.06642e-05
3 *174:A2_N 0
4 *190:A2 3.5238e-05
5 *176:B 0.00024949
6 *173:D 0
7 *184:A2 2.08954e-05
8 *183:C 0.000314079
9 *204:X 0.000284701
10 *52:65 0.000786249
11 *52:57 0.000757273
12 *52:50 0.000535377
13 *52:33 0.000552117
14 *52:25 0.000500046
15 *52:10 0.00065546
16 *52:8 0.000506222
17 *176:B *176:A 5.05297e-06
18 *176:B *190:A1 0
19 *176:B *190:B2 1.47347e-05
20 *182:C *182:B 0.000151021
21 *183:C *189:B 0
22 *190:A2 *190:A1 3.26889e-05
23 *52:10 *189:B 0
24 *52:25 *182:B 0.00015896
25 *52:25 *57:6 0.000140145
26 *52:25 *57:30 4.21973e-05
27 *52:33 *184:B1 0.00046421
28 *52:33 *55:36 2.23589e-05
29 *52:33 *55:42 5.05521e-05
30 *52:50 *55:36 2.20014e-05
31 *52:57 *173:C 0.000114478
32 *171:A *52:65 2.97004e-06
33 *173:B_N *52:57 0.000158066
34 *175:A *52:50 0.000274431
35 *175:B *52:65 4.94404e-05
36 *185:A1 *52:50 5.83121e-06
37 *185:B1 *52:33 2.84137e-05
38 *188:A1 *52:33 3.90349e-05
39 *188:B1 *189:A 0
40 *190:A3 *176:B 0.000231628
41 *190:A3 *190:A2 3.95724e-05
42 *199:B *183:C 4.10576e-05
43 *213:A *189:A 0.00011686
44 *213:A *52:10 7.70758e-05
45 *19:12 *52:50 5.65512e-05
46 *19:12 *52:57 1.48888e-05
47 *20:12 *52:65 0
48 *25:10 *52:65 0
49 *26:10 *52:65 0
50 *29:12 *182:C 2.11084e-05
51 *43:10 *52:33 1.70935e-05
52 *43:20 *184:A2 0
53 *43:20 *52:33 0.000126054
54 *43:20 *52:50 0.000301686
55 *43:56 *52:33 0.000183979
56 *51:22 *52:65 0
*RES
1 *204:X *52:8 7.5 
2 *52:8 *52:10 2.655 
3 *52:10 *183:C 7.5 
4 *52:10 *52:25 6.245 
5 *52:25 *52:33 11.365 
6 *52:33 *184:A2 1.96 
7 *52:33 *52:50 9.985 
8 *52:50 *173:D 1.6 
9 *52:50 *52:57 3.555 
10 *52:57 *52:65 12.22 
11 *52:65 *176:B 5.605 
12 *52:65 *190:A2 2.755 
13 *52:57 *174:A2_N 1.6 
14 *52:25 *182:C 3.085 
15 *52:8 *189:A 5.235 
*END

*D_NET *53 0.00264744
*CONN
*I *177:B I *D sky130_fd_sc_hd__nand2_1
*I *196:B I *D sky130_fd_sc_hd__and3_1
*I *180:A1 I *D sky130_fd_sc_hd__a21bo_1
*I *190:B2 I *D sky130_fd_sc_hd__a32o_1
*I *179:B1 I *D sky130_fd_sc_hd__a22o_1
*I *205:X O *D sky130_fd_sc_hd__buf_1
*CAP
1 *177:B 3.73784e-05
2 *196:B 0
3 *180:A1 1.91317e-05
4 *190:B2 3.44509e-05
5 *179:B1 0.000101822
6 *205:X 0.000210984
7 *53:26 0.000259837
8 *53:20 0.000333187
9 *53:14 0.000329143
10 *53:10 0.000387014
11 *177:B *57:77 6.45236e-05
12 *179:B1 *56:35 0.000159964
13 *179:B1 *57:77 0
14 *190:B2 *190:A1 4.66108e-05
15 *190:B2 *56:16 4.66108e-05
16 *53:10 *57:77 7.23533e-05
17 *53:14 *196:A 2.96426e-05
18 *53:20 *196:A 3.45588e-05
19 *53:20 *57:77 0
20 *53:26 *57:77 0
21 P[7] *177:B 0
22 *176:B *190:B2 1.47347e-05
23 *180:A2 *53:26 1.73877e-05
24 *180:B1_N *53:26 9.14049e-05
25 *181:A *180:A1 8.65905e-05
26 *181:A *53:26 9.14049e-05
27 *190:A3 *190:B2 5.83121e-06
28 *216:A *53:14 6.97034e-05
29 *26:10 *179:B1 1.07797e-05
30 *26:10 *53:26 3.32246e-05
31 *36:12 *53:20 0
32 *40:10 *180:A1 3.45588e-05
33 *40:10 *53:20 2.46089e-05
34 *51:12 *179:B1 0
*RES
1 *205:X *53:10 6.3 
2 *53:10 *53:14 3.83 
3 *53:14 *53:20 4.775 
4 *53:20 *53:26 2.7 
5 *53:26 *179:B1 5.745 
6 *53:26 *190:B2 4.395 
7 *53:20 *180:A1 4.395 
8 *53:14 *196:B 1.6 
9 *53:10 *177:B 4.47 
*END

*D_NET *54 0.00150828
*CONN
*I *174:A1_N I *D sky130_fd_sc_hd__o2bb2a_1
*I *173:C I *D sky130_fd_sc_hd__and4bb_1
*I *170:A I *D sky130_fd_sc_hd__and2_1
*I *206:X O *D sky130_fd_sc_hd__clkbuf_1
*CAP
1 *174:A1_N 2.02568e-05
2 *173:C 3.72248e-05
3 *170:A 0
4 *206:X 0.00020329
5 *54:21 0.000170366
6 *54:10 0.000316175
7 *173:B_N *173:C 4.82863e-05
8 *173:B_N *174:A1_N 8.68626e-05
9 *175:B *54:21 0.000155928
10 *206:A *54:10 1.83847e-05
11 *19:8 *173:C 3.66286e-05
12 *19:8 *174:A1_N 9.77385e-05
13 *19:12 *173:C 0.000202664
14 *20:12 *54:10 0
15 *20:12 *54:21 0
16 *52:57 *173:C 0.000114478
*RES
1 *206:X *54:10 6.12 
2 *54:10 *170:A 3.6 
3 *54:10 *54:21 4.145 
4 *54:21 *173:C 3.775 
5 *54:21 *174:A1_N 2.51875 
*END

*D_NET *55 0.00691161
*CONN
*I *178:A I *D sky130_fd_sc_hd__and3_1
*I *179:B2 I *D sky130_fd_sc_hd__a22o_1
*I *201:A I *D sky130_fd_sc_hd__clkbuf_1
*I *171:B I *D sky130_fd_sc_hd__and4_1
*I *172:A1 I *D sky130_fd_sc_hd__a22oi_1
*I *184:A1 I *D sky130_fd_sc_hd__a22o_1
*I *182:B I *D sky130_fd_sc_hd__and4_1
*I *183:B I *D sky130_fd_sc_hd__nand4_1
*I *207:X O *D sky130_fd_sc_hd__clkbuf_2
*CAP
1 *178:A 6.0427e-05
2 *179:B2 1.73867e-05
3 *201:A 0
4 *171:B 0
5 *172:A1 0
6 *184:A1 0
7 *182:B 0.000109653
8 *183:B 0
9 *207:X 0.00034622
10 *55:86 0.000269655
11 *55:42 0.000452211
12 *55:36 0.000885154
13 *55:30 0.000667423
14 *55:20 0.000254912
15 *55:12 0.000130085
16 *55:10 0.000538061
17 *178:A *57:62 0.000108251
18 *178:A *57:77 5.49479e-05
19 *179:B2 *57:62 4.00541e-06
20 *182:B *183:D 3.23391e-05
21 *182:B *189:B 1.71013e-05
22 *182:B *57:30 0.000194694
23 *182:B *57:43 8.60799e-05
24 *182:B *57:54 8.64421e-05
25 *55:10 *172:B1 3.26909e-05
26 *55:10 *56:35 3.05295e-05
27 *55:36 *172:B1 4.82863e-05
28 *55:42 *183:D 3.05295e-05
29 *55:86 *56:35 0.000182962
30 *55:86 *57:62 4.82919e-05
31 *171:A *55:20 1.69451e-05