*SPEF "ieee 1481-1999"
*DESIGN "mult4_SarsaNada_e10_SARSA_RUIDO_e9_SARSA_RUIDO_e9_SARSA_RUIDO_e9"
*DATE "18:47:22 Tuesday September 16, 2025"
*VENDOR "The OpenROAD Project"
*PROGRAM "OpenROAD"
*VERSION "edf00dff99f6c40d67a30c0e22a8191c5d2ed9d6"
*DESIGN_FLOW "NAME_SCOPE LOCAL" "PIN_CAP NONE"
*DIVIDER /
*DELIMITER :
*BUS_DELIMITER []
*T_UNIT 1 NS
*C_UNIT 1 PF
*R_UNIT 1 OHM
*L_UNIT 1 HENRY

*NAME_MAP
*1 A[0]
*2 A[1]
*3 A[2]
*4 A[3]
*5 B[0]
*6 B[1]
*7 B[2]
*8 B[3]
*9 P[0]
*10 P[1]
*11 P[2]
*12 P[3]
*13 P[4]
*14 P[5]
*15 P[6]
*16 P[7]
*19 _000_
*20 _001_
*21 _002_
*22 _003_
*23 _004_
*24 _005_
*25 _006_
*26 _007_
*27 _008_
*28 _009_
*29 _010_
*30 _011_
*31 _012_
*32 _013_
*33 _014_
*34 _015_
*35 _016_
*36 _017_
*37 _018_
*38 _019_
*39 _020_
*40 _021_
*41 _022_
*42 _023_
*43 _024_
*44 _025_
*45 _026_
*46 _027_
*47 _028_
*48 _029_
*49 _030_
*50 _031_
*51 _032_
*52 _033_
*53 _034_
*54 _035_
*55 _036_
*56 _037_
*57 _038_
*58 _039_
*59 _040_
*60 _041_
*61 _042_
*62 _043_
*63 _044_
*64 _045_
*65 _046_
*66 net1
*67 net10
*68 net11
*69 net12
*70 net13
*71 net14
*72 net15
*73 net16
*74 net2
*75 net3
*76 net4
*77 net5
*78 net6
*79 net7
*80 net8
*81 net9
*82 FILLER_0_10
*83 FILLER_0_14
*84 FILLER_0_23
*85 FILLER_0_29
*86 FILLER_0_55
*87 FILLER_0_57
*88 FILLER_0_61
*89 FILLER_0_69
*90 FILLER_1_11
*91 FILLER_1_17
*92 FILLER_1_21
*93 FILLER_1_25
*94 FILLER_1_37
*95 FILLER_1_41
*96 FILLER_1_51
*97 FILLER_1_55
*98 FILLER_1_69
*99 FILLER_2_11
*100 FILLER_2_16
*101 FILLER_2_3
*102 FILLER_2_32
*103 FILLER_2_40
*104 FILLER_2_51
*105 FILLER_2_59
*106 FILLER_2_71
*107 FILLER_2_79
*108 FILLER_3_15
*109 FILLER_3_26
*110 FILLER_3_3
*111 FILLER_3_48
*112 FILLER_3_65
*113 FILLER_4_12
*114 FILLER_4_24
*115 FILLER_4_29
*116 FILLER_4_41
*117 FILLER_4_6
*118 FILLER_4_61
*119 FILLER_4_73
*120 FILLER_5_14
*121 FILLER_5_26
*122 FILLER_5_3
*123 FILLER_5_38
*124 FILLER_5_49
*125 FILLER_5_55
*126 FILLER_5_57
*127 FILLER_5_65
*128 FILLER_5_70
*129 FILLER_5_78
*130 FILLER_6_19
*131 FILLER_6_36
*132 FILLER_6_42
*133 FILLER_6_63
*134 FILLER_6_7
*135 FILLER_7_11
*136 FILLER_7_26
*137 FILLER_7_3
*138 FILLER_7_38
*139 FILLER_7_50
*140 FILLER_7_57
*141 FILLER_7_69
*142 FILLER_8_15
*143 FILLER_8_23
*144 FILLER_8_29
*145 FILLER_8_3
*146 FILLER_8_64
*147 FILLER_8_7
*148 FILLER_8_74
*149 FILLER_8_80
*150 FILLER_9_18
*151 FILLER_9_27
*152 FILLER_9_36
*153 FILLER_9_42
*154 FILLER_9_54
*155 FILLER_9_57
*156 FILLER_9_6
*157 FILLER_9_69
*158 PHY_EDGE_ROW_0_Left_10
*159 PHY_EDGE_ROW_0_Right_0
*160 PHY_EDGE_ROW_1_Left_11
*161 PHY_EDGE_ROW_1_Right_1
*162 PHY_EDGE_ROW_2_Left_12
*163 PHY_EDGE_ROW_2_Right_2
*164 PHY_EDGE_ROW_3_Left_13
*165 PHY_EDGE_ROW_3_Right_3
*166 PHY_EDGE_ROW_4_Left_14
*167 PHY_EDGE_ROW_4_Right_4
*168 PHY_EDGE_ROW_5_Left_15
*169 PHY_EDGE_ROW_5_Right_5
*170 PHY_EDGE_ROW_6_Left_16
*171 PHY_EDGE_ROW_6_Right_6
*172 PHY_EDGE_ROW_7_Left_17
*173 PHY_EDGE_ROW_7_Right_7
*174 PHY_EDGE_ROW_8_Left_18
*175 PHY_EDGE_ROW_8_Right_8
*176 PHY_EDGE_ROW_9_Left_19
*177 PHY_EDGE_ROW_9_Right_9
*178 TAP_TAPCELL_ROW_0_20
*179 TAP_TAPCELL_ROW_0_21
*180 TAP_TAPCELL_ROW_1_22
*181 TAP_TAPCELL_ROW_2_23
*182 TAP_TAPCELL_ROW_3_24
*183 TAP_TAPCELL_ROW_4_25
*184 TAP_TAPCELL_ROW_5_26
*185 TAP_TAPCELL_ROW_6_27
*186 TAP_TAPCELL_ROW_7_28
*187 TAP_TAPCELL_ROW_8_29
*188 TAP_TAPCELL_ROW_9_30
*189 TAP_TAPCELL_ROW_9_31
*190 _047_
*191 _048_
*192 _049_
*193 _050_
*194 _051_
*195 _052_
*196 _053_
*197 _054_
*198 _055_
*199 _056_
*200 _057_
*201 _058_
*202 _059_
*203 _060_
*204 _061_
*205 _062_
*206 _063_
*207 _064_
*208 _065_
*209 _066_
*210 _067_
*211 _068_
*212 _069_
*213 _070_
*214 _071_
*215 _072_
*216 _073_
*217 _074_
*218 _075_
*219 _076_
*220 _077_
*221 _078_
*222 _079_
*223 _080_
*224 _081_
*225 _082_
*226 _083_
*227 _084_
*228 _085_
*229 _086_
*230 _087_
*231 _088_
*232 _089_
*233 _090_
*234 _091_
*235 _092_
*236 _093_
*237 _094_
*238 _095_
*239 _096_
*240 _097_
*241 _098_
*242 _099_
*243 _100_
*244 _101_
*245 input1
*246 input2
*247 input3
*248 input4
*249 input5
*250 input6
*251 input7
*252 input8
*253 output10
*254 output11
*255 output12
*256 output13
*257 output14
*258 output15
*259 output16
*260 output9

*PORTS
A[0] I
A[1] I
A[2] I
A[3] I
B[0] I
B[1] I
B[2] I
B[3] I
P[0] O
P[1] O
P[2] O
P[3] O
P[4] O
P[5] O
P[6] O
P[7] O

*D_NET *1 0.000706154
*CONN
*P A[0] I
*I *245:A I *D sky130_fd_sc_hd__buf_1
*CAP
1 A[0] 0.000337108
2 *245:A 0.000337108
3 *245:A P[0] 3.19385e-05
4 *245:A *196:B 0
5 *245:A *251:A 0
6 *245:A *66:21 0
*RES
1 A[0] *245:A 21.6946 
*END

*D_NET *2 0.000900919
*CONN
*P A[1] I
*I *246:A I *D sky130_fd_sc_hd__buf_1
*CAP
1 A[1] 0.000414042
2 *246:A 0.000414042
3 *246:A P[1] 0
4 *246:A *191:A 1.76039e-05
5 *246:A *192:A 0
6 *246:A *193:C 5.52302e-05
*RES
1 A[1] *246:A 21.8357 
*END

*D_NET *3 0.000839769
*CONN
*P A[2] I
*I *247:A I *D sky130_fd_sc_hd__dlymetal6s2s_1
*CAP
1 A[2] 0.000412376
2 *247:A 0.000412376
3 *247:A *195:B 1.50171e-05
4 *247:A *250:A 0
*RES
1 A[2] *247:A 21.9607 
*END

*D_NET *4 0.000690717
*CONN
*P A[3] I
*I *248:A I *D sky130_fd_sc_hd__buf_1
*CAP
1 A[3] 0.000304447
2 *248:A 0.000304447
3 *248:A *252:A 2.25951e-05
4 *248:A *76:8 5.92267e-05
*RES
1 A[3] *248:A 20.2479 
*END

*D_NET *5 0.0014798
*CONN
*P B[0] I
*I *249:A I *D sky130_fd_sc_hd__buf_1
*CAP
1 B[0] 0.000495806
2 *249:A 0.000495806
3 *249:A P[1] 0
4 *249:A *190:A 0
5 *249:A *198:A2 0.000170646
6 *249:A *198:B1 1.08359e-05
7 *249:A *250:A 0
8 *249:A *23:25 5.52238e-05
9 *249:A *74:49 5.52238e-05
10 *249:A *78:16 0.000196262
*RES
1 B[0] *249:A 24.5679 
*END

*D_NET *6 0.00135896
*CONN
*P B[1] I
*I *250:A I *D sky130_fd_sc_hd__buf_1
*CAP
1 B[1] 0.000543948
2 *250:A 0.000543948
3 *250:A *195:B 0
4 *250:A *198:A2 0
5 *250:A *198:A3 0.000169939
6 *250:A *211:B 7.61793e-05
7 *250:A *77:63 2.49484e-05
8 *247:A *250:A 0
9 *249:A *250:A 0
*RES
1 B[1] *250:A 24.6929 
*END

*D_NET *7 0.00061042
*CONN
*P B[2] I
*I *251:A I *D sky130_fd_sc_hd__buf_1
*CAP
1 B[2] 0.00030521
2 *251:A 0.00030521
3 *251:A *252:A 0
4 *251:A *79:8 0
5 *245:A *251:A 0
*RES
1 B[2] *251:A 20.7838 
*END

*D_NET *8 0.000779653
*CONN
*P B[3] I
*I *252:A I *D sky130_fd_sc_hd__clkbuf_2
*CAP
1 B[3] 0.000378529
2 *252:A 0.000378529
3 *252:A *224:C 0
4 *248:A *252:A 2.25951e-05
5 *251:A *252:A 0
*RES
1 B[3] *252:A 22.4088 
*END

*D_NET *9 0.000707119
*CONN
*P P[0] O
*I *260:X O *D sky130_fd_sc_hd__buf_2
*CAP
1 P[0] 0.00033759
2 *260:X 0.00033759
3 P[0] *74:25 0
4 *245:A P[0] 3.19385e-05
*RES
1 *260:X P[0] 19.6044 
*END

*D_NET *10 0.00103747
*CONN
*P P[1] O
*I *253:X O *D sky130_fd_sc_hd__buf_2
*CAP
1 P[1] 0.000447306
2 *253:X 0.000447306
3 P[1] *78:24 0.000142856
4 *246:A P[1] 0
5 *249:A P[1] 0
*RES
1 *253:X P[1] 22.05 
*END

*D_NET *11 0.000495693
*CONN
*P P[2] O
*I *254:X O *D sky130_fd_sc_hd__buf_2
*CAP
1 P[2] 0.000247846
2 *254:X 0.000247846
3 P[2] P[3] 0
*RES
1 *254:X P[2] 18.1949 
*END

*D_NET *12 0.000744167
*CONN
*P P[3] O
*I *255:X O *D sky130_fd_sc_hd__buf_2
*CAP
1 P[3] 0.000314584
2 *255:X 0.000314584
3 P[3] P[4] 0
4 P[3] *255:A 0.000114999
5 P[2] P[3] 0
*RES
1 *255:X P[3] 19.4092 
*END

*D_NET *13 0.000482632
*CONN
*P P[4] O
*I *256:X O *D sky130_fd_sc_hd__buf_2
*CAP
1 P[4] 0.000241316
2 *256:X 0.000241316
3 P[4] P[5] 0
4 P[4] *222:B 0
5 P[3] P[4] 0
*RES
1 *256:X P[4] 18.1949 
*END

*D_NET *14 0.000627935
*CONN
*P P[5] O
*I *257:X O *D sky130_fd_sc_hd__buf_2
*CAP
1 P[5] 0.000313968
2 *257:X 0.000313968
3 P[5] *257:A 0
4 P[4] P[5] 0
*RES
1 *257:X P[5] 19.4092 
*END

*D_NET *15 0.000954247
*CONN
*P P[6] O
*I *258:X O *D sky130_fd_sc_hd__buf_2
*CAP
1 P[6] 0.000477123
2 *258:X 0.000477123
*RES
1 *258:X P[6] 23.2643 
*END

*D_NET *16 0.00157891
*CONN
*P P[7] O
*I *259:X O *D sky130_fd_sc_hd__buf_2
*CAP
1 P[7] 0.000650693
2 *259:X 0.000650693
3 P[7] *61:12 0.000277524
4 P[7] *63:12 0
*RES
1 *259:X P[7] 27.2107 
*END

*D_NET *19 0.00240261
*CONN
*I *198:A3 I *D sky130_fd_sc_hd__a31o_1
*I *197:C I *D sky130_fd_sc_hd__and4_1
*I *190:Y O *D sky130_fd_sc_hd__nand2_1
*CAP
1 *198:A3 0.000400188
2 *197:C 0
3 *190:Y 0.000268103
4 *19:6 0.000668291
5 *198:A3 *195:A 1.33343e-05
6 *198:A3 *195:B 1.46148e-05
7 *198:A3 *204:C 5.58941e-05
8 *198:A3 *211:B 2.09177e-05
9 *198:A3 *21:12 0
10 *198:A3 *22:8 2.14757e-05
11 *198:A3 *23:25 1.10868e-05
12 *198:A3 *23:34 0.000226412
13 *198:A3 *25:16 7.49267e-05
14 *198:A3 *75:10 3.99614e-06
15 *198:A3 *77:63 0.000100823
16 *19:6 *197:B 1.98839e-05
17 *19:6 *23:25 1.46231e-05
18 *19:6 *74:49 0.000318101
19 *250:A *198:A3 0.000169939
*RES
1 *190:Y *19:6 13.1214 
2 *19:6 *197:C 9.3 
3 *19:6 *198:A3 26.3536 
*END

*D_NET *20 0.00305789
*CONN
*I *210:A I *D sky130_fd_sc_hd__or3_1
*I *213:B1 I *D sky130_fd_sc_hd__o21ai_1
*I *193:C I *D sky130_fd_sc_hd__and3_1
*I *192:B I *D sky130_fd_sc_hd__nand2_1
*I *191:Y O *D sky130_fd_sc_hd__nand4_1
*CAP
1 *210:A 2.25751e-05
2 *213:B1 0.000204837
3 *193:C 0.00012158
4 *192:B 0.000130094
5 *191:Y 0
6 *20:36 0.00045438
7 *20:10 0.00040605
8 *20:6 0.000381344
9 *192:B *74:8 0.000104611
10 *193:C *253:A 1.3701e-05
11 *193:C *74:8 6.05161e-06
12 *193:C *78:24 9.66214e-05
13 *210:A *213:A1 5.52302e-05
14 *210:A *213:A2 5.52302e-05
15 *210:A *34:36 1.38323e-05
16 *213:B1 *213:A1 8.23335e-05
17 *213:B1 *213:A2 0.00015546
18 *213:B1 *36:6 0.000149824
19 *213:B1 *39:16 2.27416e-05
20 *20:10 *191:A 5.63101e-05
21 *20:10 *191:B 0.000125731
22 *20:10 *192:A 0
23 *20:10 *193:B 0
24 *20:10 *74:25 0
25 *20:36 *196:B 0
26 *20:36 *208:B 2.74584e-05
27 *20:36 *34:12 2.59355e-05
28 *20:36 *34:18 5.66157e-05
29 *20:36 *34:36 6.05161e-06
30 *20:36 *35:12 3.25078e-05
31 *20:36 *80:37 0.000195555
32 *246:A *193:C 5.52302e-05
*RES
1 *191:Y *20:6 13.8 
2 *20:6 *20:10 7.66071 
3 *20:10 *192:B 12.3179 
4 *20:10 *193:C 12.4071 
5 *20:6 *20:36 9.10714 
6 *20:36 *213:B1 14.8357 
7 *20:36 *210:A 10.2464 
*END

*D_NET *21 0.00142607
*CONN
*I *220:A1 I *D sky130_fd_sc_hd__a21o_1
*I *204:A I *D sky130_fd_sc_hd__or4b_2
*I *194:X O *D sky130_fd_sc_hd__and2_1
*CAP
1 *220:A1 0.00026068
2 *204:A 0
3 *194:X 0.000139474
4 *21:12 0.000400154
5 *220:A1 *199:B 5.52302e-05
6 *220:A1 *24:6 0.000253622
7 *220:A1 *30:10 5.71472e-05
8 *21:12 *204:B 7.92378e-05
9 *21:12 *23:34 5.33005e-05
10 *21:12 *24:6 9.41642e-05
11 *21:12 *75:42 3.30575e-05
12 *198:A3 *21:12 0
*RES
1 *194:X *21:12 21.1929 
2 *21:12 *204:A 9.3 
3 *21:12 *220:A1 14.7821 
*END

*D_NET *22 0.0023674
*CONN
*I *200:A I *D sky130_fd_sc_hd__xnor2_1
*I *205:B2 I *D sky130_fd_sc_hd__a2bb2o_1
*I *195:Y O *D sky130_fd_sc_hd__nand2_1
*CAP
1 *200:A 0.00030715
2 *205:B2 0.00019617
3 *195:Y 0.000219407
4 *22:8 0.000722727
5 *200:A *25:16 0.000199934
6 *205:B2 *204:D_N 0.00015234
7 *205:B2 *25:16 0
8 *205:B2 *30:10 5.33882e-05
9 *205:B2 *75:42 7.9126e-05
10 *22:8 *195:A 5.68713e-05
11 *22:8 *195:B 0.000183453
12 *22:8 *25:16 3.03548e-05
13 *22:8 *75:6 4.88637e-05
14 *22:8 *75:10 9.61354e-05
15 *198:A3 *22:8 2.14757e-05
*RES
1 *195:Y *22:8 14.3714 
2 *22:8 *205:B2 22.9786 
3 *22:8 *200:A 15.5857 
*END

*D_NET *23 0.00445649
*CONN
*I *205:A1_N I *D sky130_fd_sc_hd__a2bb2o_1
*I *204:B I *D sky130_fd_sc_hd__or4b_2
*I *197:D I *D sky130_fd_sc_hd__and4_1
*I *198:B1 I *D sky130_fd_sc_hd__a31o_1
*I *196:X O *D sky130_fd_sc_hd__and2_1
*CAP
1 *205:A1_N 7.60528e-05
2 *204:B 4.21719e-05
3 *197:D 0
4 *198:B1 0.000196105
5 *196:X 0.000237906
6 *23:34 0.00030635
7 *23:25 0.000295628
8 *23:8 0.000541514
9 *198:B1 *190:A 0
10 *198:B1 *191:A 0
11 *198:B1 *193:B 0
12 *198:B1 *198:A1 9.60939e-05
13 *198:B1 *198:A2 7.43578e-06
14 *198:B1 *78:16 0.000173797
15 *198:B1 *78:24 5.52238e-05
16 *204:B *75:42 0.000101363
17 *205:A1_N *75:42 0.000149966
18 *23:8 *190:B 4.72917e-05
19 *23:8 *191:A 9.90367e-05
20 *23:8 *191:B 0.000438788
21 *23:8 *66:47 0.000108535
22 *23:8 *74:25 0.00010096
23 *23:8 *74:49 0.000104289
24 *23:8 *77:6 0.000142856
25 *23:8 *77:32 5.52238e-05
26 *23:25 *197:B 5.33005e-05
27 *23:25 *74:49 4.9009e-05
28 *23:25 *77:32 1.38323e-05
29 *23:25 *78:6 9.83442e-05
30 *23:25 *78:8 9.41642e-05
31 *23:25 *78:16 5.33005e-05
32 *23:34 *204:C 0.000141734
33 *23:34 *24:6 9.84763e-05
34 *23:34 *78:6 2.70242e-05
35 *198:A3 *23:25 1.10868e-05
36 *198:A3 *23:34 0.000226412
37 *249:A *198:B1 1.08359e-05
38 *249:A *23:25 5.52238e-05
39 *19:6 *23:25 1.46231e-05
40 *21:12 *204:B 7.92378e-05
41 *21:12 *23:34 5.33005e-05
*RES
1 *196:X *23:8 17.2464 
2 *23:8 *198:B1 22.2107 
3 *23:8 *23:25 3.32143 
4 *23:25 *197:D 9.3 
5 *23:25 *23:34 9.14286 
6 *23:34 *204:B 15.1393 
7 *23:34 *205:A1_N 15.7464 
*END

*D_NET *24 0.00196558
*CONN
*I *199:A_N I *D sky130_fd_sc_hd__and2b_1
*I *220:B1 I *D sky130_fd_sc_hd__a21o_1
*I *197:X O *D sky130_fd_sc_hd__and4_1
*CAP
1 *199:A_N 5.02949e-05
2 *220:B1 1.99857e-05
3 *197:X 0.0004096
4 *24:6 0.000479881
5 *199:A_N *199:B 8.07313e-05
6 *220:B1 *199:B 1.04232e-05
7 *24:6 *199:B 0.000123475
8 *24:6 *204:C 0.000143375
9 *24:6 *77:63 2.23592e-05
10 *24:6 *78:6 0.000179194
11 *220:A1 *24:6 0.000253622
12 *21:12 *24:6 9.41642e-05
13 *23:34 *24:6 9.84763e-05
*RES
1 *197:X *24:6 19.2821 
2 *24:6 *220:B1 9.72857 
3 *24:6 *199:A_N 10.6571 
*END

*D_NET *25 0.00273494
*CONN
*I *199:B I *D sky130_fd_sc_hd__and2b_1
*I *220:A2 I *D sky130_fd_sc_hd__a21o_1
*I *198:X O *D sky130_fd_sc_hd__a31o_1
*CAP
1 *199:B 0.000250432
2 *220:A2 0
3 *198:X 0.000683276
4 *25:16 0.000933708
5 *199:B *200:B 1.40415e-05
6 *25:16 *195:A 1.39726e-05
7 *25:16 *200:B 0
8 *25:16 *204:D_N 0
9 *25:16 *75:6 9.90431e-05
10 *25:16 *75:10 0.000165393
11 *198:A3 *25:16 7.49267e-05
12 *199:A_N *199:B 8.07313e-05
13 *200:A *25:16 0.000199934
14 *205:B2 *25:16 0
15 *220:A1 *199:B 5.52302e-05
16 *220:B1 *199:B 1.04232e-05
17 *22:8 *25:16 3.03548e-05
18 *24:6 *199:B 0.000123475
*RES
1 *198:X *25:16 29.8536 
2 *25:16 *220:A2 9.3 
3 *25:16 *199:B 14.7107 
*END

*D_NET *26 0.000452405
*CONN
*I *200:B I *D sky130_fd_sc_hd__xnor2_1
*I *199:X O *D sky130_fd_sc_hd__and2b_1
*CAP
1 *200:B 0.000199488
2 *199:X 0.000199488
3 *200:B *254:A 3.93881e-05
4 *199:B *200:B 1.40415e-05
5 *25:16 *200:B 0
*RES
1 *199:X *200:B 30.6 
*END

*D_NET *27 0.00380041
*CONN
*I *241:A1 I *D sky130_fd_sc_hd__a21oi_1
*I *206:A_N I *D sky130_fd_sc_hd__nand3b_2
*I *207:B1_N I *D sky130_fd_sc_hd__a21bo_1
*I *235:C I *D sky130_fd_sc_hd__and3_1
*I *201:Y O *D sky130_fd_sc_hd__nand2_1
*CAP
1 *241:A1 0
2 *206:A_N 0
3 *207:B1_N 0.000259206
4 *235:C 8.8064e-05
5 *201:Y 0.000279517
6 *27:27 0.000923395
7 *27:19 0.000846846
8 *27:10 0.000550238
9 *207:B1_N *206:C 0.000117842
10 *207:B1_N *207:A1 7.20217e-06
11 *235:C *76:36 4.91858e-05
12 *27:10 *224:A 0
13 *27:10 *235:A 0
14 *27:10 *237:B 0
15 *27:10 *60:10 0
16 *27:10 *80:8 0
17 *27:10 *80:27 0
18 *27:19 *76:36 9.52945e-05
19 *27:27 *206:C 5.37741e-06
20 *27:27 *241:B1 4.87953e-05
21 *27:27 *30:34 9.11774e-05
22 *27:27 *76:36 0.000122091
23 *27:27 *76:47 0.000316184
*RES
1 *201:Y *27:10 22.9786 
2 *27:10 *235:C 10.925 
3 *27:10 *27:19 3.41071 
4 *27:19 *27:27 17.7679 
5 *27:27 *207:B1_N 17.8714 
6 *27:27 *206:A_N 13.8 
7 *27:19 *241:A1 9.3 
*END

*D_NET *28 0.0016293
*CONN
*I *205:A2_N I *D sky130_fd_sc_hd__a2bb2o_1
*I *204:C I *D sky130_fd_sc_hd__or4b_2
*I *202:Y O *D sky130_fd_sc_hd__nand2_1
*CAP
1 *205:A2_N 0.000160489
2 *204:C 0.000145953
3 *202:Y 0.000278475
4 *28:6 0.000584918
5 *204:C *211:B 4.27333e-05
6 *205:A2_N *31:10 7.57312e-05
7 *198:A3 *204:C 5.58941e-05
8 *23:34 *204:C 0.000141734
9 *24:6 *204:C 0.000143375
*RES
1 *202:Y *28:6 13.5321 
2 *28:6 *204:C 22.2107 
3 *28:6 *205:A2_N 12.3179 
*END

*D_NET *29 0.000971452
*CONN
*I *205:B1 I *D sky130_fd_sc_hd__a2bb2o_1
*I *204:D_N I *D sky130_fd_sc_hd__or4b_2
*I *203:X O *D sky130_fd_sc_hd__and2_1
*CAP
1 *205:B1 0
2 *204:D_N 9.66762e-05
3 *203:X 0.000142376
4 *29:10 0.000239053
5 *204:D_N *214:C 0
6 *204:D_N *30:10 2.00751e-05
7 *204:D_N *36:14 1.02504e-05
8 *29:10 *30:10 4.16021e-05
9 *29:10 *36:14 0.000128146
10 *29:10 *38:6 0.000140933
11 *205:B2 *204:D_N 0.00015234
12 *25:16 *204:D_N 0
*RES
1 *203:X *29:10 16.8 
2 *29:10 *204:D_N 16.3536 
3 *29:10 *205:B1 13.8 
*END

*D_NET *30 0.00391475
*CONN
*I *229:A I *D sky130_fd_sc_hd__and3_1
*I *231:A1 I *D sky130_fd_sc_hd__a21oi_1
*I *230:A I *D sky130_fd_sc_hd__nand3_1
*I *206:B I *D sky130_fd_sc_hd__nand3b_2
*I *207:A1 I *D sky130_fd_sc_hd__a21bo_1
*I *204:X O *D sky130_fd_sc_hd__or4b_2
*CAP
1 *229:A 0.00019222
2 *231:A1 8.44299e-06
3 *230:A 9.85944e-05
4 *206:B 0
5 *207:A1 6.73509e-05
6 *204:X 0.000358504
7 *30:34 0.000562051
8 *30:21 0.000352591
9 *30:10 0.000515652
10 *229:A *229:C 0.000139913
11 *229:A *232:B 4.43256e-05
12 *229:A *239:A2 9.60939e-05
13 *229:A *32:28 2.04825e-05
14 *229:A *32:36 5.117e-05
15 *229:A *53:25 0.00018077
16 *229:A *56:8 6.87574e-05
17 *231:A1 *32:28 0
18 *30:10 *206:C 3.34295e-05
19 *30:10 *238:A_N 0
20 *30:10 *238:C 0
21 *30:10 *31:10 0.000509472
22 *30:10 *36:14 0
23 *30:10 *41:10 0
24 *30:10 *75:42 0.00017807
25 *30:21 *206:C 0.000166269
26 *30:21 *238:A_N 0
27 *30:21 *33:10 0
28 *30:34 *216:B 0
29 *30:34 *32:28 0
30 *30:34 *33:10 0
31 *204:D_N *30:10 2.00751e-05
32 *205:B2 *30:10 5.33882e-05
33 *207:B1_N *207:A1 7.20217e-06
34 *220:A1 *30:10 5.71472e-05
35 *27:27 *30:34 9.11774e-05
36 *29:10 *30:10 4.16021e-05
*RES
1 *204:X *30:10 23.5679 
2 *30:10 *207:A1 14.7464 
3 *30:10 *30:21 2.25 
4 *30:21 *206:B 13.8 
5 *30:21 *30:34 5.49107 
6 *30:34 *230:A 15.0232 
7 *30:34 *231:A1 14.0768 
8 *30:34 *229:A 18.4339 
*END

*D_NET *31 0.00190083
*CONN
*I *206:C I *D sky130_fd_sc_hd__nand3b_2
*I *207:A2 I *D sky130_fd_sc_hd__a21bo_1
*I *205:X O *D sky130_fd_sc_hd__a2bb2o_1
*CAP
1 *206:C 7.84392e-05
2 *207:A2 0
3 *205:X 0.0003146
4 *31:10 0.000393039
5 *31:10 *203:A 7.65336e-06
6 *31:10 *203:B 0.000123489
7 *31:10 *75:42 7.54868e-05
8 *205:A2_N *31:10 7.57312e-05
9 *207:B1_N *206:C 0.000117842
10 *27:27 *206:C 5.37741e-06
11 *30:10 *206:C 3.34295e-05
12 *30:10 *31:10 0.000509472
13 *30:21 *206:C 0.000166269
*RES
1 *205:X *31:10 21.6571 
2 *31:10 *207:A2 13.8 
3 *31:10 *206:C 16.3536 
*END

*D_NET *32 0.00273992
*CONN
*I *229:B I *D sky130_fd_sc_hd__and3_1
*I *231:A2 I *D sky130_fd_sc_hd__a21oi_1
*I *230:B I *D sky130_fd_sc_hd__nand3_1
*I *217:A1 I *D sky130_fd_sc_hd__a21o_1
*I *216:A I *D sky130_fd_sc_hd__and3_1
*I *206:Y O *D sky130_fd_sc_hd__nand3b_2
*CAP
1 *229:B 0.00026776
2 *231:A2 1.03616e-05
3 *230:B 2.47551e-05
4 *217:A1 0
5 *216:A 0.000139973
6 *206:Y 0
7 *32:36 0.000173377
8 *32:28 0.000629144
9 *32:10 0.000241785
10 *32:4 0.000324935
11 *216:A *216:B 1.90111e-05
12 *216:A *216:C 4.27935e-05
13 *216:A *217:B1 9.71197e-05
14 *216:A *53:10 1.24368e-05
15 *229:B *232:B 0.000105163
16 *229:B *56:8 0.000102207
17 *230:B *239:A2 8.95473e-05
18 *230:B *63:12 5.45307e-05
19 *231:A2 *239:A2 5.38444e-06
20 *231:A2 *56:8 3.41517e-06
21 *32:10 *216:B 2.59355e-05
22 *32:10 *216:C 0
23 *32:10 *53:10 4.51495e-05
24 *32:28 *216:B 1.99099e-05
25 *32:28 *239:A1 6.09476e-05
26 *32:28 *53:23 6.98306e-05
27 *32:36 *239:A2 4.99589e-05
28 *32:36 *63:12 5.28345e-05
29 *229:A *32:28 2.04825e-05
30 *229:A *32:36 5.117e-05
31 *231:A1 *32:28 0
32 *30:34 *32:28 0
*RES
1 *206:Y *32:4 9.3 
2 *32:4 *32:10 2.21429 
3 *32:10 *216:A 11.9071 
4 *32:10 *217:A1 9.3 
5 *32:4 *32:28 9.33036 
6 *32:28 *32:36 7.08036 
7 *32:36 *230:B 10.675 
8 *32:36 *231:A2 9.72857 
9 *32:28 *229:B 17.7911 
*END

*D_NET *33 0.00147078
*CONN
*I *216:B I *D sky130_fd_sc_hd__and3_1
*I *217:A2 I *D sky130_fd_sc_hd__a21o_1
*I *207:X O *D sky130_fd_sc_hd__a21bo_1
*CAP
1 *216:B 0.000285867
2 *217:A2 0
3 *207:X 0.000226662
4 *33:10 0.00051253
5 *216:B *217:B1 2.95726e-05
6 *216:B *43:6 0.000144773
7 *216:B *53:23 8.07951e-05
8 *33:10 *238:A_N 7.6644e-05
9 *33:10 *53:23 4.90803e-05
10 *216:A *216:B 1.90111e-05
11 *30:21 *33:10 0
12 *30:34 *216:B 0
13 *30:34 *33:10 0
14 *32:10 *216:B 2.59355e-05
15 *32:28 *216:B 1.99099e-05
*RES
1 *207:X *33:10 17.2107 
2 *33:10 *217:A2 13.8 
3 *33:10 *216:B 18.2464 
*END

*D_NET *34 0.00226433
*CONN
*I *213:A1 I *D sky130_fd_sc_hd__o21ai_1
*I *210:B I *D sky130_fd_sc_hd__or3_1
*I *236:A1 I *D sky130_fd_sc_hd__a21oi_1
*I *226:A I *D sky130_fd_sc_hd__xnor2_1
*I *208:X O *D sky130_fd_sc_hd__and4_1
*CAP
1 *213:A1 0.000130766
2 *210:B 0
3 *236:A1 9.76973e-05
4 *226:A 5.85542e-05
5 *208:X 0.000301405
6 *34:36 0.000166951
7 *34:18 0.000292454
8 *34:12 0.000473792
9 *213:A1 *213:A2 0.000118567
10 *226:A *226:B 1.0781e-05
11 *226:A *37:16 0
12 *236:A1 *226:B 0.000156558
13 *236:A1 *37:16 4.38128e-05
14 *34:12 *79:8 0
15 *34:12 *80:37 0
16 *34:18 *35:12 8.08022e-05
17 *34:18 *80:37 9.21958e-05
18 *210:A *213:A1 5.52302e-05
19 *210:A *34:36 1.38323e-05
20 *213:B1 *213:A1 8.23335e-05
21 *20:36 *34:12 2.59355e-05
22 *20:36 *34:18 5.66157e-05
23 *20:36 *34:36 6.05161e-06
*RES
1 *208:X *34:12 21.925 
2 *34:12 *34:18 11.8571 
3 *34:18 *226:A 10.2643 
4 *34:18 *236:A1 11.4786 
5 *34:12 *34:36 0.535714 
6 *34:36 *210:B 9.3 
7 *34:36 *213:A1 13.0143 
*END

*D_NET *35 0.00128331
*CONN
*I *213:A2 I *D sky130_fd_sc_hd__o21ai_1
*I *210:C I *D sky130_fd_sc_hd__or3_1
*I *209:Y O *D sky130_fd_sc_hd__nand2_1
*CAP
1 *213:A2 0.000190138
2 *210:C 0
3 *209:Y 0.000204873
4 *35:12 0.000395011
5 *35:12 *202:B 2.47833e-05
6 *35:12 *209:A 2.59355e-05
7 *210:A *213:A2 5.52302e-05
8 *213:A1 *213:A2 0.000118567
9 *213:B1 *213:A2 0.00015546
10 *20:36 *35:12 3.25078e-05
11 *34:18 *35:12 8.08022e-05
*RES
1 *209:Y *35:12 21.6036 
2 *35:12 *210:C 9.3 
3 *35:12 *213:A2 22.05 
*END

*D_NET *36 0.00434628
*CONN
*I *219:A1 I *D sky130_fd_sc_hd__a21o_1
*I *215:B1_N I *D sky130_fd_sc_hd__a21bo_1
*I *214:A I *D sky130_fd_sc_hd__nand3_1
*I *210:X O *D sky130_fd_sc_hd__or3_1
*CAP
1 *219:A1 0
2 *215:B1_N 0.000298883
3 *214:A 2.23854e-05
4 *210:X 0.000917637
5 *36:14 0.000687975
6 *36:6 0.00128434
7 *215:B1_N *221:C 0
8 *215:B1_N *46:10 0.000131491
9 *215:B1_N *47:8 0
10 *36:6 *203:A 0.000140088
11 *36:6 *211:B 0.000141729
12 *36:6 *212:A_N 6.42709e-05
13 *36:6 *39:16 0.000128253
14 *36:6 *39:31 3.52867e-05
15 *36:6 *78:75 0.000150497
16 *36:14 *214:C 5.52238e-05
17 *36:14 *45:12 0
18 *204:D_N *36:14 1.02504e-05
19 *213:B1 *36:6 0.000149824
20 *29:10 *36:14 0.000128146
21 *30:10 *36:14 0
*RES
1 *210:X *36:6 21.7464 
2 *36:6 *36:14 15.1607 
3 *36:14 *214:A 9.72857 
4 *36:14 *215:B1_N 24.05 
5 *36:6 *219:A1 9.3 
*END

*D_NET *37 0.00175699
*CONN
*I *212:A_N I *D sky130_fd_sc_hd__and3b_1
*I *236:A2 I *D sky130_fd_sc_hd__a21oi_1
*I *226:B I *D sky130_fd_sc_hd__xnor2_1
*I *211:X O *D sky130_fd_sc_hd__and4_1
*CAP
1 *212:A_N 6.68895e-05
2 *236:A2 0
3 *226:B 8.23076e-05
4 *211:X 0
5 *37:16 0.000430809
6 *37:4 0.000415391
7 *212:A_N *211:B 7.57312e-05
8 *212:A_N *39:16 7.17136e-05
9 *212:A_N *78:64 0.000141734
10 *212:A_N *78:75 5.65955e-05
11 *226:B *60:10 2.27416e-05
12 *37:16 *211:B 0
13 *37:16 *211:D 6.42242e-05
14 *37:16 *60:10 5.34321e-05
15 *226:A *226:B 1.0781e-05
16 *226:A *37:16 0
17 *236:A1 *226:B 0.000156558
18 *236:A1 *37:16 4.38128e-05
19 *36:6 *212:A_N 6.42709e-05
*RES
1 *211:X *37:4 9.3 
2 *37:4 *37:16 15.625 
3 *37:16 *226:B 11.6214 
4 *37:16 *236:A2 9.3 
5 *37:4 *212:A_N 12.3 
*END

*D_NET *38 0.00222981
*CONN
*I *215:A1 I *D sky130_fd_sc_hd__a21bo_1
*I *214:B I *D sky130_fd_sc_hd__nand3_1
*I *219:B1 I *D sky130_fd_sc_hd__a21o_1
*I *212:X O *D sky130_fd_sc_hd__and3b_1
*CAP
1 *215:A1 4.37234e-05
2 *214:B 9.00891e-05
3 *219:B1 2.3664e-05
4 *212:X 0.000159291
5 *38:15 0.000198419
6 *38:6 0.000247561
7 *214:B *214:C 0.000171368
8 *214:B *40:8 0.000100823
9 *214:B *46:10 0
10 *215:A1 *215:A2 9.60939e-05
11 *215:A1 *39:31 0
12 *215:A1 *40:12 1.74352e-05
13 *215:A1 *45:12 0.00012747
14 *219:B1 *39:16 9.7049e-06
15 *219:B1 *39:31 4.15027e-05
16 *38:6 *39:16 0.00031695
17 *38:6 *39:31 5.4501e-05
18 *38:6 *75:42 0.000141729
19 *38:15 *215:A2 4.08637e-05
20 *38:15 *39:31 0.000113523
21 *38:15 *45:12 9.41642e-05
22 *29:10 *38:6 0.000140933
*RES
1 *212:X *38:6 13.9429 
2 *38:6 *219:B1 10.0321 
3 *38:6 *38:15 1.76786 
4 *38:15 *214:B 20.55 
5 *38:15 *215:A1 11.0857 
*END

*D_NET *39 0.00372147
*CONN
*I *215:A2 I *D sky130_fd_sc_hd__a21bo_1
*I *214:C I *D sky130_fd_sc_hd__nand3_1
*I *219:A2 I *D sky130_fd_sc_hd__a21o_1
*I *213:Y O *D sky130_fd_sc_hd__o21ai_1
*CAP
1 *215:A2 5.44355e-05
2 *214:C 0.000124357
3 *219:A2 0
4 *213:Y 0.000655174
5 *39:31 0.000337086
6 *39:16 0.000813467
7 *214:C *40:8 1.08359e-05
8 *214:C *45:12 5.41794e-05
9 *215:A2 *40:12 2.89114e-05
10 *39:16 *203:A 0.000127651
11 *39:16 *75:42 2.94004e-05
12 *39:16 *78:64 0.000140969
13 *39:16 *78:75 0.00018728
14 *204:D_N *214:C 0
15 *212:A_N *39:16 7.17136e-05
16 *213:B1 *39:16 2.27416e-05
17 *214:B *214:C 0.000171368
18 *215:A1 *215:A2 9.60939e-05
19 *215:A1 *39:31 0
20 *219:B1 *39:16 9.7049e-06
21 *219:B1 *39:31 4.15027e-05
22 *36:6 *39:16 0.000128253
23 *36:6 *39:31 3.52867e-05
24 *36:14 *214:C 5.52238e-05
25 *38:6 *39:16 0.00031695
26 *38:6 *39:31 5.4501e-05
27 *38:15 *215:A2 4.08637e-05
28 *38:15 *39:31 0.000113523
*RES
1 *213:Y *39:16 22.2464 
2 *39:16 *219:A2 9.3 
3 *39:16 *39:31 4 
4 *39:31 *214:C 21.3893 
5 *39:31 *215:A2 10.6571 
*END

*D_NET *40 0.0019271
*CONN
*I *238:D I *D sky130_fd_sc_hd__and4b_1
*I *243:A1 I *D sky130_fd_sc_hd__a21oi_1
*I *221:A I *D sky130_fd_sc_hd__and3_1
*I *214:Y O *D sky130_fd_sc_hd__nand3_1
*CAP
1 *238:D 8.53938e-05
2 *243:A1 0.000213623
3 *221:A 0
4 *214:Y 0.000105006
5 *40:12 0.000466039
6 *40:8 0.000442815
7 *238:D *238:B 2.3541e-05
8 *238:D *239:C1 4.75757e-06
9 *238:D *41:10 0.000115467
10 *238:D *46:10 0
11 *243:A1 *221:C 1.95435e-05
12 *243:A1 *243:A2 3.5597e-05
13 *243:A1 *244:A 9.90431e-05
14 *243:A1 *45:12 8.81471e-06
15 *40:8 *41:10 3.51442e-05
16 *40:8 *45:12 4.98055e-06
17 *40:8 *46:10 0
18 *40:12 *45:12 0.000109325
19 *214:B *40:8 0.000100823
20 *214:C *40:8 1.08359e-05
21 *215:A1 *40:12 1.74352e-05
22 *215:A2 *40:12 2.89114e-05
*RES
1 *214:Y *40:8 16.05 
2 *40:8 *40:12 9.14286 
3 *40:12 *221:A 9.3 
4 *40:12 *243:A1 12.3179 
5 *40:8 *238:D 15.6795 
*END

*D_NET *41 0.00144283
*CONN
*I *216:C I *D sky130_fd_sc_hd__and3_1
*I *217:B1 I *D sky130_fd_sc_hd__a21o_1
*I *215:X O *D sky130_fd_sc_hd__a21bo_1
*CAP
1 *216:C 7.9063e-05
2 *217:B1 2.86414e-05
3 *215:X 0.00028592
4 *41:10 0.000393625
5 *216:C *43:6 7.38107e-05
6 *217:B1 *43:6 6.05161e-06
7 *41:10 *233:B1 0
8 *41:10 *234:B 0
9 *41:10 *238:A_N 0
10 *41:10 *238:C 5.33882e-05
11 *41:10 *239:C1 0.000168217
12 *41:10 *45:12 3.40128e-05
13 *216:A *216:C 4.27935e-05
14 *216:A *217:B1 9.71197e-05
15 *216:B *217:B1 2.95726e-05
16 *238:D *41:10 0.000115467
17 *30:10 *41:10 0
18 *32:10 *216:C 0
19 *40:8 *41:10 3.51442e-05
*RES
1 *215:X *41:10 25.4071 
2 *41:10 *217:B1 10.2464 
3 *41:10 *216:C 11.2821 
*END

*D_NET *42 0.00218655
*CONN
*I *239:A1 I *D sky130_fd_sc_hd__a211o_1
*I *218:A_N I *D sky130_fd_sc_hd__and2b_1
*I *233:B1 I *D sky130_fd_sc_hd__a21oi_1
*I *216:X O *D sky130_fd_sc_hd__and3_1
*CAP
1 *239:A1 0.000588395
2 *218:A_N 2.3671e-05
3 *233:B1 0.000197875
4 *216:X 3.92359e-05
5 *42:10 0.00025675
6 *42:8 0.000662835
7 *218:A_N *43:6 5.52302e-05
8 *233:B1 *234:B 6.35892e-05
9 *233:B1 *239:C1 0
10 *239:A1 *234:B 7.36174e-05
11 *239:A1 *239:C1 1.59782e-05
12 *239:A1 *53:23 7.6644e-05
13 *42:8 *43:6 5.52238e-05
14 *42:10 *234:B 1.65558e-05
15 *42:10 *239:C1 0
16 *32:28 *239:A1 6.09476e-05
17 *41:10 *233:B1 0
*RES
1 *216:X *42:8 14.3357 
2 *42:8 *42:10 0.732143 
3 *42:10 *233:B1 17.4071 
4 *42:10 *218:A_N 14.3357 
5 *42:8 *239:A1 31.6393 
*END

*D_NET *43 0.0010901
*CONN
*I *233:A1 I *D sky130_fd_sc_hd__a21oi_1
*I *218:B I *D sky130_fd_sc_hd__and2b_1
*I *217:X O *D sky130_fd_sc_hd__a21o_1
*CAP
1 *233:A1 0.000129943
2 *218:B 0
3 *217:X 0.000199712
4 *43:6 0.000329656
5 *233:A1 *222:B 0
6 *233:A1 *234:B 9.56968e-05
7 *216:B *43:6 0.000144773
8 *216:C *43:6 7.38107e-05
9 *217:B1 *43:6 6.05161e-06
10 *218:A_N *43:6 5.52302e-05
11 *42:8 *43:6 5.52238e-05
*RES
1 *217:X *43:6 13.5321 
2 *43:6 *218:B 9.3 
3 *43:6 *233:A1 21.0857 
*END

*D_NET *44 0.000206288
*CONN
*I *222:A I *D sky130_fd_sc_hd__xor2_1
*I *218:X O *D sky130_fd_sc_hd__and2b_1
*CAP
1 *222:A 0.000103144
2 *218:X 0.000103144
3 *222:A *256:A 0
*RES
1 *218:X *222:A 20.3857 
*END

*D_NET *45 0.00230786
*CONN
*I *238:C I *D sky130_fd_sc_hd__and4b_1
*I *243:A2 I *D sky130_fd_sc_hd__a21oi_1
*I *221:B I *D sky130_fd_sc_hd__and3_1
*I *219:X O *D sky130_fd_sc_hd__a21o_1
*CAP
1 *238:C 0.000103013
2 *243:A2 0.000102803
3 *221:B 0
4 *219:X 0
5 *45:12 0.000712227
6 *45:6 0.000712437
7 *238:C *238:B 5.52238e-05
8 *238:C *239:C1 2.40379e-05
9 *243:A2 *221:C 2.0954e-05
10 *243:A2 *244:A 5.52302e-05
11 *243:A2 *244:B 0
12 *214:C *45:12 5.41794e-05
13 *215:A1 *45:12 0.00012747
14 *243:A1 *243:A2 3.5597e-05
15 *243:A1 *45:12 8.81471e-06
16 *30:10 *238:C 0
17 *36:14 *45:12 0
18 *38:15 *45:12 9.41642e-05
19 *40:8 *45:12 4.98055e-06
20 *40:12 *45:12 0.000109325
21 *41:10 *238:C 5.33882e-05
22 *41:10 *45:12 3.40128e-05
*RES
1 *219:X *45:6 13.8 
2 *45:6 *45:12 12.8393 
3 *45:12 *221:B 9.3 
4 *45:12 *243:A2 11.6929 
5 *45:6 *238:C 16.0857 
*END

*D_NET *46 0.00291018
*CONN
*I *243:B1 I *D sky130_fd_sc_hd__a21oi_1
*I *221:C I *D sky130_fd_sc_hd__and3_1
*I *238:B I *D sky130_fd_sc_hd__and4b_1
*I *220:X O *D sky130_fd_sc_hd__a21o_1
*CAP
1 *243:B1 0.00031123
2 *221:C 7.12259e-05
3 *238:B 0.000219088
4 *220:X 0.000305266
5 *46:19 0.00071009
6 *46:10 0.000851988
7 *221:C *47:8 4.46186e-06
8 *221:C *47:23 4.33438e-05
9 *238:B *239:C1 1.09616e-05
10 *243:B1 *255:A 0.000131776
11 *214:B *46:10 0
12 *215:B1_N *221:C 0
13 *215:B1_N *46:10 0.000131491
14 *238:C *238:B 5.52238e-05
15 *238:D *238:B 2.3541e-05
16 *238:D *46:10 0
17 *243:A1 *221:C 1.95435e-05
18 *243:A2 *221:C 2.0954e-05
19 *40:8 *46:10 0
*RES
1 *220:X *46:10 24.1929 
2 *46:10 *238:B 11.8893 
3 *46:10 *46:19 3.82143 
4 *46:19 *221:C 19.8357 
5 *46:19 *243:B1 22.5321 
*END

*D_NET *47 0.00179337
*CONN
*I *222:B I *D sky130_fd_sc_hd__xor2_1
*I *233:A2 I *D sky130_fd_sc_hd__a21oi_1
*I *244:A I *D sky130_fd_sc_hd__nor2_1
*I *221:X O *D sky130_fd_sc_hd__and3_1
*CAP
1 *222:B 0.000155366
2 *233:A2 0.000110609
3 *244:A 0.000181015
4 *221:X 7.5419e-05
5 *47:23 0.00051955
6 *47:8 0.000510009
7 *222:B *234:B 0
8 *244:A *244:B 3.93247e-05
9 *47:8 *255:A 0
10 *47:23 *234:B 0
11 *47:23 *255:A 0
12 P[4] *222:B 0
13 *215:B1_N *47:8 0
14 *221:C *47:8 4.46186e-06
15 *221:C *47:23 4.33438e-05
16 *233:A1 *222:B 0
17 *243:A1 *244:A 9.90431e-05