*SPEF "ieee 1481-1999"
*DESIGN "SarsaNada_e10_1"
*DATE "11:32:39 Wednesday September 17, 2025"
*VENDOR "The OpenROAD Project"
*PROGRAM "OpenROAD"
*VERSION "edf00dff99f6c40d67a30c0e22a8191c5d2ed9d6"
*DESIGN_FLOW "NAME_SCOPE LOCAL" "PIN_CAP NONE"
*DIVIDER /
*DELIMITER :
*BUS_DELIMITER []
*T_UNIT 1 NS
*C_UNIT 1 PF
*R_UNIT 1 OHM
*L_UNIT 1 HENRY

*NAME_MAP
*1 A[0]
*2 A[1]
*3 B[0]
*4 B[1]
*5 P[0]
*6 P[1]
*7 P[2]
*8 P[3]
*11 _00_
*12 _01_
*13 _02_
*14 _03_
*15 net1
*16 net2
*17 net3
*18 net4
*19 net5
*20 net6
*21 net7
*22 net8
*23 FILLER_0_15
*24 FILLER_0_27
*25 FILLER_0_29
*26 FILLER_0_3
*27 FILLER_0_35
*28 FILLER_0_41
*29 FILLER_0_48
*30 FILLER_0_57
*31 FILLER_0_69
*32 FILLER_1_15
*33 FILLER_1_27
*34 FILLER_1_3
*35 FILLER_1_39
*36 FILLER_1_51
*37 FILLER_1_55
*38 FILLER_1_57
*39 FILLER_1_69
*40 FILLER_2_15
*41 FILLER_2_27
*42 FILLER_2_29
*43 FILLER_2_3
*44 FILLER_2_41
*45 FILLER_2_53
*46 FILLER_2_65
*47 FILLER_2_77
*48 FILLER_3_15
*49 FILLER_3_27
*50 FILLER_3_3
*51 FILLER_3_33
*52 FILLER_3_40
*53 FILLER_3_52
*54 FILLER_3_57
*55 FILLER_3_69
*56 FILLER_4_15
*57 FILLER_4_27
*58 FILLER_4_29
*59 FILLER_4_3
*60 FILLER_4_41
*61 FILLER_4_53
*62 FILLER_4_65
*63 FILLER_4_77
*64 FILLER_5_15
*65 FILLER_5_27
*66 FILLER_5_3
*67 FILLER_5_35
*68 FILLER_5_41
*69 FILLER_5_53
*70 FILLER_5_57
*71 FILLER_5_69
*72 FILLER_6_15
*73 FILLER_6_27
*74 FILLER_6_29
*75 FILLER_6_3
*76 FILLER_6_35
*77 FILLER_6_41
*78 FILLER_6_53
*79 FILLER_6_65
*80 FILLER_6_77
*81 FILLER_7_15
*82 FILLER_7_27
*83 FILLER_7_3
*84 FILLER_7_47
*85 FILLER_7_55
*86 FILLER_7_57
*87 FILLER_7_69
*88 FILLER_8_15
*89 FILLER_8_27
*90 FILLER_8_29
*91 FILLER_8_3
*92 FILLER_8_33
*93 FILLER_8_51
*94 FILLER_8_63
*95 FILLER_8_75
*96 FILLER_9_15
*97 FILLER_9_27
*98 FILLER_9_29
*99 FILLER_9_3
*100 FILLER_9_34
*101 FILLER_9_41
*102 FILLER_9_49
*103 FILLER_9_57
*104 FILLER_9_63
*105 FILLER_9_75
*106 PHY_EDGE_ROW_0_Left_10
*107 PHY_EDGE_ROW_0_Right_0
*108 PHY_EDGE_ROW_1_Left_11
*109 PHY_EDGE_ROW_1_Right_1
*110 PHY_EDGE_ROW_2_Left_12
*111 PHY_EDGE_ROW_2_Right_2
*112 PHY_EDGE_ROW_3_Left_13
*113 PHY_EDGE_ROW_3_Right_3
*114 PHY_EDGE_ROW_4_Left_14
*115 PHY_EDGE_ROW_4_Right_4
*116 PHY_EDGE_ROW_5_Left_15
*117 PHY_EDGE_ROW_5_Right_5
*118 PHY_EDGE_ROW_6_Left_16
*119 PHY_EDGE_ROW_6_Right_6
*120 PHY_EDGE_ROW_7_Left_17
*121 PHY_EDGE_ROW_7_Right_7
*122 PHY_EDGE_ROW_8_Left_18
*123 PHY_EDGE_ROW_8_Right_8
*124 PHY_EDGE_ROW_9_Left_19
*125 PHY_EDGE_ROW_9_Right_9
*126 TAP_TAPCELL_ROW_0_20
*127 TAP_TAPCELL_ROW_0_21
*128 TAP_TAPCELL_ROW_1_22
*129 TAP_TAPCELL_ROW_2_23
*130 TAP_TAPCELL_ROW_3_24
*131 TAP_TAPCELL_ROW_4_25
*132 TAP_TAPCELL_ROW_5_26
*133 TAP_TAPCELL_ROW_6_27
*134 TAP_TAPCELL_ROW_7_28
*135 TAP_TAPCELL_ROW_8_29
*136 TAP_TAPCELL_ROW_9_30
*137 TAP_TAPCELL_ROW_9_31
*138 _04_
*139 _05_
*140 _06_
*141 _07_
*142 _08_
*143 _09_
*144 _10_
*145 _11_
*146 input1
*147 input2
*148 input3
*149 input4
*150 output5
*151 output6
*152 output7
*153 output8

*PORTS
A[0] I
A[1] I
B[0] I
B[1] I
P[0] O
P[1] O
P[2] O
P[3] O

*D_NET *1 0.00108468
*CONN
*P A[0] I
*I *146:A I *D sky130_fd_sc_hd__clkbuf_1
*CAP
1 A[0] 0.000508189
2 *146:A 0.000508189
3 *146:A P[0] 0
4 *146:A *149:A 0
5 *146:A *150:A 5.50106e-05
6 *146:A *15:10 1.32939e-05
*RES
1 A[0] *146:A 48.4193 
*END

*D_NET *2 0.000980411
*CONN
*P A[1] I
*I *147:A I *D sky130_fd_sc_hd__buf_1
*CAP
1 A[1] 0.000490205
2 *147:A 0.000490205
3 *147:A *148:A 0
*RES
1 A[1] *147:A 48.73 
*END

*D_NET *3 0.00106499
*CONN
*P B[0] I
*I *148:A I *D sky130_fd_sc_hd__clkbuf_1
*CAP
1 B[0] 0.000532493
2 *148:A 0.000532493
3 *148:A P[3] 0
4 *147:A *148:A 0
*RES
1 B[0] *148:A 49.6829 
*END

*D_NET *4 0.00101856
*CONN
*P B[1] I
*I *149:A I *D sky130_fd_sc_hd__clkbuf_1
*CAP
1 B[1] 0.000509279
2 *149:A 0.000509279
3 *146:A *149:A 0
*RES
1 B[1] *149:A 48.5643 
*END

*D_NET *5 0.000936389
*CONN
*P P[0] O
*I *150:X O *D sky130_fd_sc_hd__buf_2
*CAP
1 P[0] 0.000468195
2 *150:X 0.000468195
3 *146:A P[0] 0
*RES
1 *150:X P[0] 47.0936 
*END

*D_NET *6 0.00100219
*CONN
*P P[1] O
*I *151:X O *D sky130_fd_sc_hd__buf_2
*CAP
1 P[1] 0.000501094
2 *151:X 0.000501094
3 P[1] P[2] 0
*RES
1 *151:X P[1] 48.9786 
*END

*D_NET *7 0.00100219
*CONN
*P P[2] O
*I *152:X O *D sky130_fd_sc_hd__buf_2
*CAP
1 P[2] 0.000501094
2 *152:X 0.000501094
3 P[2] P[3] 0
4 P[1] P[2] 0
*RES
1 *152:X P[2] 48.9786 
*END

*D_NET *8 0.000961231
*CONN
*P P[3] O
*I *153:X O *D sky130_fd_sc_hd__buf_2
*CAP
1 P[3] 0.000480616
2 *153:X 0.000480616
3 P[2] P[3] 0
4 *148:A P[3] 0
*RES
1 *153:X P[3] 48.5021 
*END

*D_NET *11 0.00189943
*CONN
*I *145:A2 I *D sky130_fd_sc_hd__o211a_1
*I *142:B I *D sky130_fd_sc_hd__nor2_1
*I *143:C1 I *D sky130_fd_sc_hd__o211a_1
*I *140:A_N I *D sky130_fd_sc_hd__nand2b_1
*I *139:Y O *D sky130_fd_sc_hd__nand2_1
*CAP
1 *145:A2 3.87138e-05
2 *142:B 6.18575e-05
3 *143:C1 1.50079e-05
4 *140:A_N 0
5 *139:Y 9.39713e-05
6 *11:34 0.000287293
7 *11:17 0.000363242
8 *11:8 0.000255483
9 *142:B *145:A1 2.26762e-05
10 *142:B *14:42 3.91386e-05
11 *142:B *16:36 5.57529e-05
12 *142:B *22:8 9.61729e-05
13 *143:C1 *143:A2 4.17736e-05
14 *143:C1 *143:B1 5.50049e-05
15 *143:C1 *16:20 1.32314e-05
16 *145:A2 *145:A1 6.52686e-05
17 *145:A2 *16:36 3.23857e-06
18 *145:A2 *22:8 8.78562e-05
19 *11:8 *140:B 4.6318e-06
20 *11:8 *12:10 4.08537e-05
21 *11:17 *140:B 0.000104648
22 *11:17 *14:12 9.5956e-06
23 *11:34 *145:B1 1.05759e-05
24 *11:34 *14:12 1.02133e-05
25 *11:34 *16:36 0.00012323
*RES
1 *139:Y *11:8 39.9057 
2 *11:8 *140:A_N 38 
3 *11:8 *11:17 3.31429 
4 *11:17 *143:C1 38.6214 
5 *11:17 *11:34 18.3764 
6 *11:34 *142:B 24.8021 
7 *11:34 *145:A2 24.595 
*END

*D_NET *12 0.00145471
*CONN
*I *141:B1 I *D sky130_fd_sc_hd__o21a_1
*I *140:Y O *D sky130_fd_sc_hd__nand2b_1
*CAP
1 *141:B1 6.10936e-05
2 *140:Y 0.000393529
3 *12:10 0.000454623
4 *141:B1 *141:A2 3.7122e-06
5 *141:B1 *19:14 5.56279e-05
6 *12:10 *139:B 0.000439095
7 *12:10 *140:B 6.17437e-06
8 *12:10 *18:36 0
9 *11:8 *12:10 4.08537e-05
*RES
1 *140:Y *12:10 46.6379 
2 *12:10 *141:B1 39.0979 
*END

*D_NET *13 0.000559596
*CONN
*I *144:B I *D sky130_fd_sc_hd__nor2_1
*I *143:X O *D sky130_fd_sc_hd__o211a_1
*CAP
1 *144:B 0
2 *143:X 0.00027676
3 *13:10 0.00027676
4 *13:10 *22:14 6.07611e-06
*RES
1 *143:X *13:10 41.9564 
2 *13:10 *144:B 38 
*END

*D_NET *14 0.00223748
*CONN
*I *145:A1 I *D sky130_fd_sc_hd__o211a_1
*I *142:A I *D sky130_fd_sc_hd__nor2_1
*I *143:B1 I *D sky130_fd_sc_hd__o211a_1
*I *140:B I *D sky130_fd_sc_hd__nand2b_1
*I *138:Y O *D sky130_fd_sc_hd__nand2_1
*CAP
1 *145:A1 0.000271175
2 *142:A 1.48786e-05
3 *143:B1 0.00013322
4 *140:B 0.000181172
5 *138:Y 6.54591e-05
6 *14:42 0.000315046
7 *14:12 0.000455642
8 *14:6 0.000235701
9 *140:B *17:12 0
10 *143:B1 *143:A2 3.44036e-05
11 *143:B1 *16:20 4.21378e-05
12 *145:A1 *16:36 0.000100629
13 *145:A1 *22:8 1.75486e-05
14 *14:12 *16:36 3.98887e-05
15 *14:42 *22:8 1.32314e-05
16 *142:B *145:A1 2.26762e-05
17 *142:B *14:42 3.91386e-05
18 *143:C1 *143:B1 5.50049e-05
19 *145:A2 *145:A1 6.52686e-05
20 *11:8 *140:B 4.6318e-06
21 *11:17 *140:B 0.000104648
22 *11:17 *14:12 9.5956e-06
23 *11:34 *14:12 1.02133e-05
24 *12:10 *140:B 6.17437e-06
*RES
1 *138:Y *14:6 24.0979 
2 *14:6 *14:12 17.755 
3 *14:12 *140:B 42.0289 
4 *14:12 *143:B1 40.5479 
5 *14:6 *14:42 1.11857 
6 *14:42 *142:A 23.6214 
7 *14:42 *145:A1 28.6964 
*END

*D_NET *15 0.00263592
*CONN
*I *139:B I *D sky130_fd_sc_hd__nand2_1
*I *141:A2 I *D sky130_fd_sc_hd__o21a_1
*I *146:X O *D sky130_fd_sc_hd__clkbuf_1
*CAP
1 *139:B 0.000203308
2 *141:A2 5.93794e-05
3 *146:X 0.000307775
4 *15:10 0.000570462
5 *139:B *18:8 0
6 *139:B *18:25 0.00046689
7 *139:B *19:14 4.59715e-05
8 *141:A2 *141:A1 6.17437e-06
9 *15:10 *150:A 3.7122e-06
10 *15:10 *18:8 0
11 *15:10 *19:14 0.00051615
12 *141:B1 *141:A2 3.7122e-06
13 *146:A *15:10 1.32939e-05
14 *12:10 *139:B 0.000439095
*RES
1 *146:X *15:10 45.4571 
2 *15:10 *141:A2 38.6214 
3 *15:10 *139:B 45.4571 
*END

*D_NET *16 0.0024151
*CONN
*I *138:B I *D sky130_fd_sc_hd__nand2_1
*I *143:A2 I *D sky130_fd_sc_hd__o211a_1
*I *145:C1 I *D sky130_fd_sc_hd__o211a_1
*I *147:X O *D sky130_fd_sc_hd__buf_1
*CAP
1 *138:B 4.23312e-05
2 *143:A2 0.00010351
3 *145:C1 0
4 *147:X 0.000217653
5 *16:36 0.000249035
6 *16:20 0.000691983
7 *16:14 0.000599422
8 *16:14 *17:12 1.36794e-05
9 *16:20 *17:12 2.24366e-06
10 *16:36 *145:B1 3.35885e-06
11 *16:36 *17:12 3.75943e-05
12 *16:36 *22:14 0
13 *142:B *16:36 5.57529e-05
14 *143:B1 *143:A2 3.44036e-05
15 *143:B1 *16:20 4.21378e-05
16 *143:C1 *143:A2 4.17736e-05
17 *143:C1 *16:20 1.32314e-05
18 *145:A1 *16:36 0.000100629
19 *145:A2 *16:36 3.23857e-06
20 *11:34 *16:36 0.00012323
21 *14:12 *16:36 3.98887e-05
*RES
1 *147:X *16:14 41.6457 
2 *16:14 *16:20 20.2614 
3 *16:20 *16:36 34.8989 
4 *16:36 *145:C1 23 
5 *16:20 *143:A2 25.0714 
6 *16:14 *138:B 38.6214 
*END

*D_NET *17 0.000530379
*CONN
*I *138:A I *D sky130_fd_sc_hd__nand2_1
*I *148:X O *D sky130_fd_sc_hd__clkbuf_1
*CAP
1 *138:A 0
2 *148:X 0.000238431
3 *17:12 0.000238431
4 *17:12 *22:14 0
5 *140:B *17:12 0
6 *16:14 *17:12 1.36794e-05
7 *16:20 *17:12 2.24366e-06
8 *16:36 *17:12 3.75943e-05
*RES
1 *148:X *17:12 41.5007 
2 *17:12 *138:A 38 
*END

*D_NET *18 0.00382685
*CONN
*I *145:B1 I *D sky130_fd_sc_hd__o211a_1
*I *143:A1 I *D sky130_fd_sc_hd__o211a_1
*I *139:A I *D sky130_fd_sc_hd__nand2_1
*I *141:A1 I *D sky130_fd_sc_hd__o21a_1
*I *149:X O *D sky130_fd_sc_hd__clkbuf_1
*CAP
1 *145:B1 0.000312581
2 *143:A1 6.78703e-05
3 *139:A 0
4 *141:A1 4.47009e-05
5 *149:X 0.000411568
6 *18:36 0.00085138
7 *18:25 0.0006882
8 *18:12 0.000406976
9 *18:8 0.000556572
10 *139:B *18:8 0
11 *139:B *18:25 0.00046689
12 *141:A2 *141:A1 6.17437e-06
13 *11:34 *145:B1 1.05759e-05
14 *12:10 *18:36 0
15 *15:10 *18:8 0
16 *16:36 *145:B1 3.35885e-06
*RES
1 *149:X *18:8 45.54 
2 *18:8 *18:12 17.5271 
3 *18:12 *141:A1 23.6214 
4 *18:12 *18:25 36.1314 
5 *18:25 *139:A 23 
6 *18:25 *18:36 23.3064 
7 *18:36 *143:A1 39.0979 
8 *18:36 *145:B1 42.3293 
*END

*D_NET *19 0.00184911
*CONN
*I *150:A I *D sky130_fd_sc_hd__buf_2
*I *141:X O *D sky130_fd_sc_hd__o21a_1
*CAP
1 *150:A 0.000105094
2 *141:X 0.000481224
3 *19:14 0.000586318
4 *139:B *19:14 4.59715e-05
5 *141:B1 *19:14 5.56279e-05
6 *146:A *150:A 5.50106e-05
7 *15:10 *150:A 3.7122e-06
8 *15:10 *19:14 0.00051615
*RES
1 *141:X *19:14 48.9371 
2 *19:14 *150:A 40.0507 
*END

*D_NET *20 0.000962104
*CONN
*I *151:A I *D sky130_fd_sc_hd__buf_2
*I *144:Y O *D sky130_fd_sc_hd__nor2_1
*CAP
1 *151:A 0
2 *144:Y 0.000453988
3 *20:10 0.000453988
4 *20:10 *21:10 5.41288e-05
*RES
1 *144:Y *20:10 44.6907 
2 *20:10 *151:A 38 
*END

*D_NET *21 0.000648065
*CONN
*I *152:A I *D sky130_fd_sc_hd__buf_2
*I *145:X O *D sky130_fd_sc_hd__o211a_1
*CAP
1 *152:A 0
2 *145:X 0.000285454
3 *21:10 0.000285454
4 *21:10 *22:8 2.30292e-05
5 *21:10 *22:14 0
6 *20:10 *21:10 5.41288e-05
*RES
1 *145:X *21:10 43.4893 
2 *21:10 *152:A 38 
*END

*D_NET *22 0.00144408
*CONN
*I *144:A I *D sky130_fd_sc_hd__nor2_1
*I *153:A I *D sky130_fd_sc_hd__buf_2
*I *142:Y O *D sky130_fd_sc_hd__nor2_1
*CAP
1 *144:A 0
2 *153:A 0
3 *142:Y 0.000415605
4 *22:14 0.000184476
5 *22:8 0.000600081
6 *142:B *22:8 9.61729e-05
7 *145:A1 *22:8 1.75486e-05
8 *145:A2 *22:8 8.78562e-05
9 *13:10 *22:14 6.07611e-06
10 *14:42 *22:8 1.32314e-05
11 *16:36 *22:14 0
12 *17:12 *22:14 0
13 *21:10 *22:8 2.30292e-05
14 *21:10 *22:14 0
*RES
1 *142:Y *22:8 28.7586 
2 *22:8 *22:14 33.3143 
3 *22:14 *153:A 23 
4 *22:8 *144:A 23 
*END
