*SPEF "ieee 1481-1999"
*DESIGN "SARSANSTEPS_VENTAJA_e7"
*DATE "09:44:21 Friday September 12, 2025"
*VENDOR "The OpenROAD Project"
*PROGRAM "OpenROAD"
*VERSION "edf00dff99f6c40d67a30c0e22a8191c5d2ed9d6"
*DESIGN_FLOW "NAME_SCOPE LOCAL" "PIN_CAP NONE"
*DIVIDER /
*DELIMITER :
*BUS_DELIMITER []
*T_UNIT 1 NS
*C_UNIT 1 PF
*R_UNIT 1 OHM
*L_UNIT 1 HENRY

*NAME_MAP
*1 A[0]
*2 A[1]
*3 B[0]
*4 B[1]
*5 P[0]
*6 P[1]
*7 P[2]
*8 P[3]
*11 _0_
*12 _1_
*13 net1
*14 net2
*15 net3
*16 net4
*17 net5
*18 net6
*19 net7
*20 net8
*21 FILLER_0_15
*22 FILLER_0_27
*23 FILLER_0_29
*24 FILLER_0_3
*25 FILLER_0_41
*26 FILLER_0_49
*27 FILLER_0_57
*28 FILLER_0_69
*29 FILLER_1_15
*30 FILLER_1_27
*31 FILLER_1_3
*32 FILLER_1_39
*33 FILLER_1_51
*34 FILLER_1_55
*35 FILLER_1_57
*36 FILLER_1_69
*37 FILLER_2_15
*38 FILLER_2_27
*39 FILLER_2_29
*40 FILLER_2_3
*41 FILLER_2_41
*42 FILLER_2_53
*43 FILLER_2_65
*44 FILLER_2_77
*45 FILLER_3_15
*46 FILLER_3_27
*47 FILLER_3_3
*48 FILLER_3_39
*49 FILLER_3_51
*50 FILLER_3_55
*51 FILLER_3_57
*52 FILLER_3_69
*53 FILLER_4_15
*54 FILLER_4_27
*55 FILLER_4_29
*56 FILLER_4_3
*57 FILLER_4_41
*58 FILLER_4_53
*59 FILLER_4_65
*60 FILLER_4_77
*61 FILLER_5_15
*62 FILLER_5_27
*63 FILLER_5_3
*64 FILLER_5_39
*65 FILLER_5_47
*66 FILLER_5_55
*67 FILLER_5_57
*68 FILLER_5_69
*69 FILLER_6_15
*70 FILLER_6_27
*71 FILLER_6_29
*72 FILLER_6_3
*73 FILLER_6_41
*74 FILLER_6_53
*75 FILLER_6_65
*76 FILLER_6_77
*77 FILLER_7_15
*78 FILLER_7_27
*79 FILLER_7_3
*80 FILLER_7_33
*81 FILLER_7_37
*82 FILLER_7_49
*83 FILLER_7_55
*84 FILLER_7_57
*85 FILLER_7_69
*86 FILLER_8_15
*87 FILLER_8_27
*88 FILLER_8_29
*89 FILLER_8_3
*90 FILLER_8_42
*91 FILLER_8_51
*92 FILLER_8_68
*93 FILLER_8_80
*94 FILLER_9_15
*95 FILLER_9_23
*96 FILLER_9_27
*97 FILLER_9_29
*98 FILLER_9_3
*99 FILLER_9_34
*100 FILLER_9_41
*101 FILLER_9_49
*102 FILLER_9_57
*103 FILLER_9_63
*104 FILLER_9_69
*105 PHY_EDGE_ROW_0_Left_10
*106 PHY_EDGE_ROW_0_Right_0
*107 PHY_EDGE_ROW_1_Left_11
*108 PHY_EDGE_ROW_1_Right_1
*109 PHY_EDGE_ROW_2_Left_12
*110 PHY_EDGE_ROW_2_Right_2
*111 PHY_EDGE_ROW_3_Left_13
*112 PHY_EDGE_ROW_3_Right_3
*113 PHY_EDGE_ROW_4_Left_14
*114 PHY_EDGE_ROW_4_Right_4
*115 PHY_EDGE_ROW_5_Left_15
*116 PHY_EDGE_ROW_5_Right_5
*117 PHY_EDGE_ROW_6_Left_16
*118 PHY_EDGE_ROW_6_Right_6
*119 PHY_EDGE_ROW_7_Left_17
*120 PHY_EDGE_ROW_7_Right_7
*121 PHY_EDGE_ROW_8_Left_18
*122 PHY_EDGE_ROW_8_Right_8
*123 PHY_EDGE_ROW_9_Left_19
*124 PHY_EDGE_ROW_9_Right_9
*125 TAP_TAPCELL_ROW_0_20
*126 TAP_TAPCELL_ROW_0_21
*127 TAP_TAPCELL_ROW_1_22
*128 TAP_TAPCELL_ROW_2_23
*129 TAP_TAPCELL_ROW_3_24
*130 TAP_TAPCELL_ROW_4_25
*131 TAP_TAPCELL_ROW_5_26
*132 TAP_TAPCELL_ROW_6_27
*133 TAP_TAPCELL_ROW_7_28
*134 TAP_TAPCELL_ROW_8_29
*135 TAP_TAPCELL_ROW_9_30
*136 TAP_TAPCELL_ROW_9_31
*137 _2_
*138 _3_
*139 _4_
*140 _5_
*141 _6_
*142 _7_
*143 input1
*144 input2
*145 input3
*146 input4
*147 output5
*148 output6
*149 output7
*150 output8

*PORTS
A[0] I
A[1] I
B[0] I
B[1] I
P[0] O
P[1] O
P[2] O
P[3] O

*D_NET *1 0.000930923
*CONN
*P A[0] I
*I *143:A I *D sky130_fd_sc_hd__buf_1
*CAP
1 A[0] 0.000465461
2 *143:A 0.000465461
3 *143:A *146:A 0
*RES
1 A[0] *143:A 23.05 
*END

*D_NET *2 0.00101131
*CONN
*P A[1] I
*I *144:A I *D sky130_fd_sc_hd__clkbuf_1
*CAP
1 A[1] 0.000505653
2 *144:A 0.000505653
3 *144:A P[3] 0
*RES
1 A[1] *144:A 23.8714 
*END

*D_NET *3 0.000930923
*CONN
*P B[0] I
*I *145:A I *D sky130_fd_sc_hd__buf_1
*CAP
1 B[0] 0.000465461
2 *145:A 0.000465461
3 *145:A P[2] 0
4 *145:A *146:A 0
5 *145:A *149:A 0
*RES
1 B[0] *145:A 23.05 
*END

*D_NET *4 0.000930923
*CONN
*P B[1] I
*I *146:A I *D sky130_fd_sc_hd__clkbuf_1
*CAP
1 B[1] 0.000465461
2 *146:A 0.000465461
3 *143:A *146:A 0
4 *145:A *146:A 0
*RES
1 B[1] *146:A 23.05 
*END

*D_NET *5 0.000950737
*CONN
*P P[0] O
*I *147:X O *D sky130_fd_sc_hd__buf_2
*CAP
1 P[0] 0.000475368
2 *147:X 0.000475368
*RES
1 *147:X P[0] 22.05 
*END

*D_NET *6 0.000911701
*CONN
*P P[1] O
*I *148:X O *D sky130_fd_sc_hd__buf_2
*CAP
1 P[1] 0.00045585
2 *148:X 0.00045585
3 P[1] P[2] 0
4 P[1] P[3] 0
*RES
1 *148:X P[1] 22.8536 
*END

*D_NET *7 0.000951893
*CONN
*P P[2] O
*I *149:X O *D sky130_fd_sc_hd__buf_2
*CAP
1 P[2] 0.000475946
2 *149:X 0.000475946
3 P[1] P[2] 0
4 *145:A P[2] 0
*RES
1 *149:X P[2] 23.2643 
*END

*D_NET *8 0.000951893
*CONN
*P P[3] O
*I *150:X O *D sky130_fd_sc_hd__buf_2
*CAP
1 P[3] 0.000475946
2 *150:X 0.000475946
3 P[1] P[3] 0
4 *144:A P[3] 0
*RES
1 *150:X P[3] 23.2643 
*END

*D_NET *11 0.000462247
*CONN
*I *142:C I *D sky130_fd_sc_hd__and3_1
*I *138:Y O *D sky130_fd_sc_hd__nand2_1
*CAP
1 *142:C 0.000158491
2 *138:Y 0.000158491
3 *142:C *138:B 2.34969e-05
4 *142:C *139:A 5.14325e-05
5 *142:C *142:A 5.68722e-05
6 *142:C *13:29 1.34631e-05
*RES
1 *138:Y *142:C 30.0643 
*END

*D_NET *12 0.000167093
*CONN
*I *141:B I *D sky130_fd_sc_hd__and2b_1
*I *140:X O *D sky130_fd_sc_hd__mux2_1
*CAP
1 *141:B 2.68232e-05
2 *140:X 2.68232e-05
3 *141:B *140:A0 5.62995e-05
4 *141:B *148:A 5.71472e-05
*RES
1 *140:X *141:B 19.5464 
*END

*D_NET *13 0.00444786
*CONN
*I *140:A0 I *D sky130_fd_sc_hd__mux2_1
*I *139:D I *D sky130_fd_sc_hd__and4_1
*I *137:B I *D sky130_fd_sc_hd__xnor2_1
*I *138:B I *D sky130_fd_sc_hd__nand2_1
*I *143:X O *D sky130_fd_sc_hd__buf_1
*CAP
1 *140:A0 0.000129282
2 *139:D 0
3 *137:B 0.000462217
4 *138:B 0.000175327
5 *143:X 0.00034521
6 *13:46 0.000246414
7 *13:29 0.000741149
8 *13:12 0.000682337
9 *137:B *16:12 2.94103e-05
10 *140:A0 *140:S 0.000670527
11 *140:A0 *148:A 1.21289e-05
12 *140:A0 *150:A 0.000131439
13 *140:A0 *20:6 0.000144773
14 *13:29 *139:A 5.03772e-05
15 *13:29 *142:A 2.84026e-05
16 *13:29 *142:B 5.52238e-05
17 *13:46 *139:A 9.33521e-05
18 *13:46 *140:S 4.59075e-05
19 *13:46 *142:B 0.000311121
20 *141:B *140:A0 5.62995e-05
21 *142:C *138:B 2.34969e-05
22 *142:C *13:29 1.34631e-05
*RES
1 *143:X *13:12 18.4161 
2 *13:12 *138:B 17.0411 
3 *13:12 *13:29 7.5 
4 *13:29 *137:B 26.55 
5 *13:29 *13:46 3.83929 
6 *13:46 *139:D 9.3 
7 *13:46 *140:A0 15.5857 
*END

*D_NET *14 0.00284081
*CONN
*I *140:A1 I *D sky130_fd_sc_hd__mux2_1
*I *142:B I *D sky130_fd_sc_hd__and3_1
*I *139:C I *D sky130_fd_sc_hd__and4_1
*I *144:X O *D sky130_fd_sc_hd__clkbuf_1
*CAP
1 *140:A1 0.000107721
2 *142:B 0.000138388
3 *139:C 4.81621e-05
4 *144:X 7.74294e-05
5 *14:12 0.000857524
6 *14:6 0.000856125
7 *139:C *15:10 5.58941e-05
8 *140:A1 *150:A 0
9 *142:B *149:A 0.000186765
10 *14:12 *148:A 0
11 *14:12 *150:A 5.41609e-05
12 *14:12 *15:10 9.22948e-05
13 *13:29 *142:B 5.52238e-05
14 *13:46 *142:B 0.000311121
*RES
1 *144:X *14:6 10.2464 
2 *14:6 *14:12 12.9464 
3 *14:12 *139:C 14.5321 
4 *14:12 *142:B 17.6393 
5 *14:6 *140:A1 19.9429 
*END

*D_NET *15 0.00395581
*CONN
*I *140:S I *D sky130_fd_sc_hd__mux2_1
*I *139:B I *D sky130_fd_sc_hd__and4_1
*I *138:A I *D sky130_fd_sc_hd__nand2_1
*I *137:A I *D sky130_fd_sc_hd__xnor2_1
*I *145:X O *D sky130_fd_sc_hd__buf_1
*CAP
1 *140:S 0.000412672
2 *139:B 0
3 *138:A 0.000273217
4 *137:A 0.000385104
5 *145:X 0.000319111
6 *15:34 0.000412672
7 *15:12 0.00077235
8 *15:10 0.000433139
9 *137:A *147:A 7.43578e-06
10 *15:10 *149:A 7.54868e-05
11 *15:10 *16:12 0
12 *139:C *15:10 5.58941e-05
13 *140:A0 *140:S 0.000670527
14 *13:46 *140:S 4.59075e-05
15 *14:12 *15:10 9.22948e-05
*RES
1 *145:X *15:10 18.6393 
2 *15:10 *15:12 1.94643 
3 *15:12 *137:A 20.55 
4 *15:12 *138:A 18.0321 
5 *15:10 *15:34 4.5 
6 *15:34 *139:B 9.3 
7 *15:34 *140:S 17.9607 
*END

*D_NET *16 0.0012347
*CONN
*I *139:A I *D sky130_fd_sc_hd__and4_1
*I *142:A I *D sky130_fd_sc_hd__and3_1
*I *146:X O *D sky130_fd_sc_hd__clkbuf_1
*CAP
1 *139:A 0.00012799
2 *142:A 1.20678e-05
3 *146:X 0.000322372
4 *16:12 0.000462429
5 *16:12 *149:A 0
6 *137:B *16:12 2.94103e-05
7 *142:C *139:A 5.14325e-05
8 *142:C *142:A 5.68722e-05
9 *13:29 *139:A 5.03772e-05
10 *13:29 *142:A 2.84026e-05
11 *13:46 *139:A 9.33521e-05
12 *15:10 *16:12 0
*RES
1 *146:X *16:12 22.7286 
2 *16:12 *142:A 9.83571 
3 *16:12 *139:A 11.8893 
*END

*D_NET *17 0.00165769
*CONN
*I *147:A I *D sky130_fd_sc_hd__buf_2
*I *137:Y O *D sky130_fd_sc_hd__xnor2_1
*CAP
1 *147:A 0.000825127
2 *137:Y 0.000825127
3 *137:A *147:A 7.43578e-06
*RES
1 *137:Y *147:A 42.1536 
*END

*D_NET *18 0.000608523
*CONN
*I *148:A I *D sky130_fd_sc_hd__buf_2
*I *141:X O *D sky130_fd_sc_hd__and2b_1
*CAP
1 *148:A 0.000179864
2 *141:X 0.000179864
3 *148:A *150:A 0.00017952
4 *140:A0 *148:A 1.21289e-05
5 *141:B *148:A 5.71472e-05
6 *14:12 *148:A 0
*RES
1 *141:X *148:A 30.9036 
*END

*D_NET *19 0.000700205
*CONN
*I *149:A I *D sky130_fd_sc_hd__buf_2
*I *142:X O *D sky130_fd_sc_hd__and3_1
*CAP
1 *149:A 0.000218977
2 *142:X 0.000218977
3 *142:B *149:A 0.000186765
4 *145:A *149:A 0
5 *15:10 *149:A 7.54868e-05
6 *16:12 *149:A 0
*RES
1 *142:X *149:A 31.3143 
*END

*D_NET *20 0.00107643
*CONN
*I *150:A I *D sky130_fd_sc_hd__buf_2
*I *141:A_N I *D sky130_fd_sc_hd__and2b_1
*I *139:X O *D sky130_fd_sc_hd__and4_1
*CAP
1 *150:A 0.000232521
2 *141:A_N 0
3 *139:X 5.07484e-05
4 *20:6 0.000283269
5 *140:A0 *150:A 0.000131439
6 *140:A0 *20:6 0.000144773
7 *140:A1 *150:A 0
8 *148:A *150:A 0.00017952
9 *14:12 *150:A 5.41609e-05
*RES
1 *139:X *20:6 10.6571 
2 *20:6 *141:A_N 9.3 
3 *20:6 *150:A 23.5679 
*END
