*SPEF "ieee 1481-1999"
*DESIGN "mult4_SarsaNStepsRuido_e9_SARSA_RUIDO_e9_SARSA_RUIDO_e9_SARSA_RUIDO_e9"
*DATE "18:45:27 Tuesday September 16, 2025"
*VENDOR "The OpenROAD Project"
*PROGRAM "OpenROAD"
*VERSION "edf00dff99f6c40d67a30c0e22a8191c5d2ed9d6"
*DESIGN_FLOW "NAME_SCOPE LOCAL" "PIN_CAP NONE"
*DIVIDER /
*DELIMITER :
*BUS_DELIMITER []
*T_UNIT 1 NS
*C_UNIT 1 PF
*R_UNIT 1 OHM
*L_UNIT 1 HENRY

*NAME_MAP
*1 A[0]
*2 A[1]
*3 A[2]
*4 A[3]
*5 B[0]
*6 B[1]
*7 B[2]
*8 B[3]
*9 net16
*10 P[1]
*11 P[2]
*12 P[3]
*13 P[4]
*14 P[5]
*15 P[6]
*16 P[7]
*19 _000_
*20 _001_
*21 _002_
*22 _003_
*23 _004_
*24 _005_
*25 _006_
*26 _007_
*27 _008_
*28 _009_
*29 _010_
*30 _011_
*31 _012_
*32 _013_
*33 _014_
*34 _015_
*35 _016_
*36 _017_
*37 _018_
*38 _019_
*39 _020_
*40 _021_
*41 _022_
*42 _023_
*43 _024_
*44 _025_
*45 _026_
*46 _027_
*47 _028_
*48 _029_
*49 _030_
*50 _031_
*51 _032_
*52 _033_
*53 _034_
*54 _035_
*55 _036_
*56 _037_
*57 _038_
*58 _039_
*59 _040_
*60 _041_
*61 _042_
*62 _043_
*63 _044_
*64 _045_
*65 _046_
*66 _047_
*67 _048_
*68 _049_
*69 net1
*70 net10
*71 net11
*72 net12
*73 net13
*74 net14
*75 net15
*76 net2
*77 net3
*78 net4
*79 net5
*80 net6
*81 net7
*82 net8
*83 net9
*84 FILLER_0_11
*85 FILLER_0_24
*86 FILLER_0_29
*87 FILLER_0_3
*88 FILLER_0_52
*89 FILLER_0_57
*90 FILLER_0_69
*91 FILLER_1_18
*92 FILLER_1_64
*93 FILLER_1_76
*94 FILLER_2_13
*95 FILLER_2_29
*96 FILLER_2_33
*97 FILLER_2_39
*98 FILLER_2_49
*99 FILLER_2_55
*100 FILLER_2_62
*101 FILLER_2_77
*102 FILLER_3_12
*103 FILLER_3_24
*104 FILLER_3_39
*105 FILLER_3_51
*106 FILLER_3_55
*107 FILLER_3_57
*108 FILLER_3_66
*109 FILLER_3_79
*110 FILLER_4_10
*111 FILLER_4_16
*112 FILLER_4_29
*113 FILLER_4_41
*114 FILLER_4_53
*115 FILLER_4_60
*116 FILLER_4_72
*117 FILLER_4_76
*118 FILLER_5_10
*119 FILLER_5_23
*120 FILLER_5_35
*121 FILLER_5_47
*122 FILLER_5_55
*123 FILLER_5_57
*124 FILLER_5_6
*125 FILLER_5_69
*126 FILLER_5_77
*127 FILLER_6_11
*128 FILLER_6_27
*129 FILLER_6_3
*130 FILLER_6_36
*131 FILLER_6_65
*132 FILLER_6_69
*133 FILLER_7_19
*134 FILLER_7_27
*135 FILLER_7_36
*136 FILLER_7_48
*137 FILLER_7_54
*138 FILLER_7_64
*139 FILLER_7_7
*140 FILLER_7_73
*141 FILLER_8_26
*142 FILLER_8_29
*143 FILLER_8_3
*144 FILLER_8_36
*145 FILLER_8_48
*146 FILLER_8_65
*147 FILLER_8_73
*148 FILLER_9_18
*149 FILLER_9_26
*150 FILLER_9_29
*151 FILLER_9_44
*152 FILLER_9_49
*153 FILLER_9_55
*154 FILLER_9_57
*155 FILLER_9_6
*156 FILLER_9_61
*157 FILLER_9_73
*158 PHY_EDGE_ROW_0_Left_10
*159 PHY_EDGE_ROW_0_Right_0
*160 PHY_EDGE_ROW_1_Left_11
*161 PHY_EDGE_ROW_1_Right_1
*162 PHY_EDGE_ROW_2_Left_12
*163 PHY_EDGE_ROW_2_Right_2
*164 PHY_EDGE_ROW_3_Left_13
*165 PHY_EDGE_ROW_3_Right_3
*166 PHY_EDGE_ROW_4_Left_14
*167 PHY_EDGE_ROW_4_Right_4
*168 PHY_EDGE_ROW_5_Left_15
*169 PHY_EDGE_ROW_5_Right_5
*170 PHY_EDGE_ROW_6_Left_16
*171 PHY_EDGE_ROW_6_Right_6
*172 PHY_EDGE_ROW_7_Left_17
*173 PHY_EDGE_ROW_7_Right_7
*174 PHY_EDGE_ROW_8_Left_18
*175 PHY_EDGE_ROW_8_Right_8
*176 PHY_EDGE_ROW_9_Left_19
*177 PHY_EDGE_ROW_9_Right_9
*178 TAP_TAPCELL_ROW_0_20
*179 TAP_TAPCELL_ROW_0_21
*180 TAP_TAPCELL_ROW_1_22
*181 TAP_TAPCELL_ROW_2_23
*182 TAP_TAPCELL_ROW_3_24
*183 TAP_TAPCELL_ROW_4_25
*184 TAP_TAPCELL_ROW_5_26
*185 TAP_TAPCELL_ROW_6_27
*186 TAP_TAPCELL_ROW_7_28
*187 TAP_TAPCELL_ROW_8_29
*188 TAP_TAPCELL_ROW_9_30
*189 TAP_TAPCELL_ROW_9_31
*190 _050_
*191 _051_
*192 _052_
*193 _053_
*194 _054_
*195 _055_
*196 _056_
*197 _057_
*198 _058_
*199 _059_
*200 _060_
*201 _061_
*202 _062_
*203 _063_
*204 _064_
*205 _065_
*206 _066_
*207 _067_
*208 _068_
*209 _069_
*210 _070_
*211 _071_
*212 _072_
*213 _073_
*214 _074_
*215 _075_
*216 _076_
*217 _077_
*218 _078_
*219 _079_
*220 _080_
*221 _081_
*222 _082_
*223 _083_
*224 _084_
*225 _085_
*226 _086_
*227 _087_
*228 _088_
*229 _089_
*230 _090_
*231 _091_
*232 _092_
*233 _093_
*234 _094_
*235 _095_
*236 _096_
*237 _097_
*238 _098_
*239 _099_
*240 _100_
*241 _101_
*242 _102_
*243 _103_
*244 _104_
*245 _105_
*246 _106_
*247 input1
*248 input2
*249 input3
*250 input4
*251 input5
*252 input6
*253 input7
*254 input8
*255 mult4_SarsaNStepsRuido_e9_SARSA_RUIDO_e9_SARSA_RUIDO_e9_SARSA_RUIDO_e9_16
*256 output10
*257 output11
*258 output12
*259 output13
*260 output14
*261 output15
*262 output9

*PORTS
A[0] I
A[1] I
A[2] I
A[3] I
B[0] I
B[1] I
B[2] I
B[3] I
P[0] O
P[1] O
P[2] O
P[3] O
P[4] O
P[5] O
P[6] O
P[7] O

*D_NET *1 0.000764819
*CONN
*P A[0] I
*I *247:A I *D sky130_fd_sc_hd__clkbuf_2
*CAP
1 A[0] 0.000327923
2 *247:A 0
3 *1:17 0.000327923
4 *1:17 *248:A 2.61329e-05
5 *1:17 *7:17 2.61329e-05
6 *1:17 *69:12 5.67058e-05
*RES
1 A[0] *1:17 27.6348 
2 *1:17 *247:A 23 
*END

*D_NET *2 0.000631171
*CONN
*P A[1] I
*I *248:A I *D sky130_fd_sc_hd__dlymetal6s2s_1
*CAP
1 A[1] 0.000289453
2 *248:A 0.000289453
3 *248:A P[0] 2.61329e-05
4 *1:17 *248:A 2.61329e-05
*RES
1 A[1] *248:A 49.8062 
*END

*D_NET *3 0.00164242
*CONN
*P A[2] I
*I *249:A I *D sky130_fd_sc_hd__clkbuf_2
*CAP
1 A[2] 0.000712431
2 *249:A 0
3 *3:9 0.000712431
4 *3:9 *201:A 0.000102389
5 *3:9 *252:A 0
6 *3:9 *29:10 1.32939e-05
7 *3:9 *77:14 2.30292e-05
8 *3:9 *80:41 7.88512e-05
*RES
1 A[2] *3:9 29.21 
2 *3:9 *249:A 23 
*END

*D_NET *4 0.000744618
*CONN
*P A[3] I
*I *250:A I *D sky130_fd_sc_hd__buf_1
*CAP
1 A[3] 0.000336683
2 *250:A 0.000336683
3 *250:A *8:17 2.79122e-05
4 *250:A *78:8 4.334e-05
5 *250:A *78:23 0
*RES
1 A[3] *250:A 49.5439 
*END

*D_NET *5 0.00160606
*CONN
*P B[0] I
*I *251:A I *D sky130_fd_sc_hd__dlymetal6s2s_1
*CAP
1 B[0] 0.000567054
2 *251:A 0
3 *5:9 0.000567054
4 *5:9 P[1] 0
5 *5:9 *198:A 0.000243587
6 *5:9 *252:A 0
7 *5:9 *21:10 8.47345e-05
8 *5:9 *24:10 5.3304e-05
9 *5:9 *76:28 3.70187e-05
10 *5:9 *79:8 5.3304e-05
*RES
1 B[0] *5:9 27.1386 
2 *5:9 *251:A 23 
*END

*D_NET *6 0.000937291
*CONN
*P B[1] I
*I *252:A I *D sky130_fd_sc_hd__dlymetal6s2s_1
*CAP
1 B[1] 0.00044114
2 *252:A 0.00044114
3 *252:A *198:A 0
4 *252:A *80:6 5.50106e-05
5 *3:9 *252:A 0
6 *5:9 *252:A 0
*RES
1 B[1] *252:A 47.3214 
*END

*D_NET *7 0.000725913
*CONN
*P B[2] I
*I *253:A I *D sky130_fd_sc_hd__buf_1
*CAP
1 B[2] 0.00034989
2 *253:A 0
3 *7:17 0.00034989
4 *7:17 *8:17 0
5 *7:17 *81:28 0
6 *1:17 *7:17 2.61329e-05
*RES
1 B[2] *7:17 27.8627 
2 *7:17 *253:A 23 
*END

*D_NET *8 0.000680882
*CONN
*P B[3] I
*I *254:A I *D sky130_fd_sc_hd__clkbuf_2
*CAP
1 B[3] 0.000326485
2 *254:A 0
3 *8:17 0.000326485
4 *250:A *8:17 2.79122e-05
5 *7:17 *8:17 0
*RES
1 B[3] *8:17 27.2827 
2 *8:17 *254:A 23 
*END

*D_NET *9 0.000639289
*CONN
*P P[0] O
*I *255:LO O *D sky130_fd_sc_hd__conb_1
*CAP
1 P[0] 0.000306578
2 *255:LO 0.000306578
3 *248:A P[0] 2.61329e-05
*RES
1 *255:LO P[0] 49.8062 
*END

*D_NET *10 0.000938849
*CONN
*P P[1] O
*I *262:X O *D sky130_fd_sc_hd__buf_2
*CAP
1 P[1] 0.000455806
2 *262:X 0.000455806
3 P[1] *80:17 2.7237e-05
4 *5:9 P[1] 0
*RES
1 *262:X P[1] 47.0936 
*END

*D_NET *11 0.000527382
*CONN
*P P[2] O
*I *256:X O *D sky130_fd_sc_hd__buf_2
*CAP
1 P[2] 0.000263691
2 *256:X 0.000263691
3 P[2] P[3] 0
*RES
1 *256:X P[2] 47.1648 
*END

*D_NET *12 0.000693257
*CONN
*P P[3] O
*I *257:X O *D sky130_fd_sc_hd__buf_2
*CAP
1 P[3] 0.000313891
2 *257:X 0.000313891
3 P[3] P[4] 0
4 P[3] *71:10 6.54744e-05
5 P[2] P[3] 0
*RES
1 *257:X P[3] 48.5734 
*END

*D_NET *13 0.000515599
*CONN
*P P[4] O
*I *258:X O *D sky130_fd_sc_hd__buf_2
*CAP
1 P[4] 0.000251428
2 *258:X 0.000251428
3 P[4] P[5] 0
4 P[4] *72:10 1.27424e-05
5 P[3] P[4] 0
*RES
1 *258:X P[4] 47.1648 
*END

*D_NET *14 0.000675947
*CONN
*P P[5] O
*I *259:X O *D sky130_fd_sc_hd__buf_2
*CAP
1 P[5] 0.000337973
2 *259:X 0.000337973
3 P[5] *73:8 0
4 P[4] P[5] 0
*RES
1 *259:X P[5] 48.5734 
*END

*D_NET *15 0.00100219
*CONN
*P P[6] O
*I *260:X O *D sky130_fd_sc_hd__buf_2
*CAP
1 P[6] 0.000501094
2 *260:X 0.000501094
*RES
1 *260:X P[6] 48.9786 
*END

*D_NET *16 0.00181352
*CONN
*P P[7] O
*I *261:X O *D sky130_fd_sc_hd__buf_2
*CAP
1 P[7] 0.00048835
2 *261:X 0.00035033
3 *16:8 0.00083868
4 *16:8 *260:A 5.0005e-05
5 *16:8 *65:21 7.87147e-05
6 *16:8 *66:29 7.44161e-06
*RES
1 *261:X *16:8 42.9093 
2 *16:8 P[7] 10.5021 
*END

*D_NET *19 0.000523547
*CONN
*I *192:A2 I *D sky130_fd_sc_hd__o211a_1
*I *190:Y O *D sky130_fd_sc_hd__inv_2
*CAP
1 *192:A2 0
2 *190:Y 0.000236299
3 *19:10 0.000236299
4 *19:10 *79:25 6.07611e-06
5 *19:10 *80:30 4.48731e-05
*RES
1 *190:Y *19:10 41.3557 
2 *19:10 *192:A2 38 
*END

*D_NET *20 0.0017176
*CONN
*I *193:A I *D sky130_fd_sc_hd__nor2_1
*I *191:Y O *D sky130_fd_sc_hd__a21oi_1
*CAP
1 *193:A 7.8039e-05
2 *191:Y 0.000405556
3 *20:10 0.000483595
4 *193:A *190:A 0
5 *193:A *198:B 2.02517e-05
6 *193:A *262:A 6.10445e-05
7 *193:A *80:17 0.000181131
8 *20:10 *21:10 5.97612e-05
9 *20:10 *76:14 7.42621e-05
10 *20:10 *76:28 0.000310647
11 *20:10 *79:47 1.01436e-05
12 *20:10 *80:30 3.31683e-05
*RES
1 *191:Y *20:10 44.815 
2 *20:10 *193:A 40.5479 
*END

*D_NET *21 0.000942657
*CONN
*I *193:B I *D sky130_fd_sc_hd__nor2_1
*I *192:X O *D sky130_fd_sc_hd__o211a_1
*CAP
1 *193:B 0
2 *192:X 0.000169165
3 *21:10 0.000169165
4 *21:10 *76:28 0.000217598
5 *21:10 *79:8 4.08664e-05
6 *21:10 *79:10 0.000141954
7 *21:10 *79:47 5.94125e-05
8 *5:9 *21:10 8.47345e-05
9 *20:10 *21:10 5.97612e-05
*RES
1 *192:X *21:10 43.0129 
2 *21:10 *193:B 38 
*END

*D_NET *22 0.00191949
*CONN
*I *202:A I *D sky130_fd_sc_hd__xnor2_1
*I *206:A I *D sky130_fd_sc_hd__nand4_2
*I *207:B2 I *D sky130_fd_sc_hd__a22o_1
*I *194:Y O *D sky130_fd_sc_hd__nand2_1
*CAP
1 *202:A 0.000224825
2 *206:A 0.000195885
3 *207:B2 0
4 *194:Y 3.06579e-05
5 *22:12 0.000308443
6 *22:6 0.000368041
7 *202:A *194:A 0.000129522
8 *202:A *202:B 0.000128401
9 *202:A *49:10 0.000187129
10 *202:A *70:8 0
11 *206:A *216:B 0
12 *206:A *217:A2 0
13 *206:A *23:30 3.36638e-05
14 *206:A *34:12 0.000163352
15 *206:A *39:14 0
16 *206:A *41:10 5.41385e-05
17 *22:6 *194:A 1.24376e-05
18 *22:6 *222:B1 2.32004e-05
19 *22:12 *23:30 6.07611e-06
20 *22:12 *23:32 3.34654e-05
21 *22:12 *77:23 2.02517e-05
*RES
1 *194:Y *22:6 23.6214 
2 *22:6 *22:12 17.4029 
3 *22:12 *207:B2 38 
4 *22:12 *206:A 42.4121 
5 *22:6 *202:A 28.8829 
*END

*D_NET *23 0.00487879
*CONN
*I *206:B I *D sky130_fd_sc_hd__nand4_2
*I *207:A1 I *D sky130_fd_sc_hd__a22o_1
*I *200:A I *D sky130_fd_sc_hd__nor2_1
*I *201:A I *D sky130_fd_sc_hd__xor2_1
*I *195:Y O *D sky130_fd_sc_hd__nand2_2
*CAP
1 *206:B 0
2 *207:A1 0
3 *200:A 0
4 *201:A 0.000188771
5 *195:Y 0.000418101
6 *23:32 0.000347404
7 *23:30 0.000345305
8 *23:24 0.000494986
9 *23:10 0.000726415
10 *201:A *200:B 2.3164e-05
11 *201:A *201:B 3.87236e-05
12 *201:A *77:14 4.95813e-05
13 *23:10 *204:A 0.00014196
14 *23:10 *215:A1 5.83407e-05
15 *23:10 *215:A2 3.73132e-05
16 *23:10 *215:B1_N 9.67842e-05
17 *23:10 *31:6 0.000140308
18 *23:10 *42:14 0.000612535
19 *23:24 *206:C 1.67147e-05
20 *23:24 *214:C 0.00018701
21 *23:24 *31:6 0.000361741
22 *23:24 *31:21 3.55967e-05
23 *23:24 *40:10 2.72882e-05
24 *23:24 *40:21 5.58975e-06
25 *23:24 *41:10 4.49877e-05
26 *23:24 *77:104 9.4798e-06
27 *23:30 *31:21 8.28985e-05
28 *23:30 *33:8 3.64246e-05
29 *23:30 *34:12 0.000161121
30 *23:32 *31:21 1.12863e-05
31 *23:32 *77:14 3.36312e-06
32 *206:A *23:30 3.36638e-05
33 *3:9 *201:A 0.000102389
34 *22:12 *23:30 6.07611e-06
35 *22:12 *23:32 3.34654e-05
*RES
1 *195:Y *23:10 49.6 
2 *23:10 *23:24 22.9957 
3 *23:24 *23:30 18.9357 
4 *23:30 *23:32 2.61 
5 *23:32 *201:A 42.4121 
6 *23:32 *200:A 38 
7 *23:30 *207:A1 38 
8 *23:24 *206:B 23 
*END

*D_NET *24 0.00101269
*CONN
*I *199:S I *D sky130_fd_sc_hd__mux2_1
*I *196:X O *D sky130_fd_sc_hd__and3_1
*CAP
1 *199:S 0
2 *196:X 0.000325176
3 *24:10 0.000325176
4 *24:10 *79:6 4.95081e-05
5 *24:10 *79:8 2.32101e-05
6 *24:10 *79:71 0.00023632
7 *5:9 *24:10 5.3304e-05
*RES
1 *196:X *24:10 29.8564 
2 *24:10 *199:S 23 
*END

*D_NET *25 0.00108442
*CONN
*I *212:B I *D sky130_fd_sc_hd__and4b_1
*I *215:B1_N I *D sky130_fd_sc_hd__o21bai_1
*I *197:X O *D sky130_fd_sc_hd__and4_1
*CAP
1 *212:B 0.000182563
2 *215:B1_N 2.84143e-05
3 *197:X 0.000108564
4 *25:8 0.000319542
5 *212:B *215:A1 0
6 *212:B *69:19 5.50049e-05
7 *212:B *77:46 0.000101647
8 *212:B *82:42 4.6318e-06
9 *212:B *82:48 2.71291e-05
10 *215:B1_N *215:A2 9.67842e-05
11 *25:8 *77:46 6.33511e-05
12 *23:10 *215:B1_N 9.67842e-05
*RES
1 *197:X *25:8 39.9057 
2 *25:8 *215:B1_N 39.0979 
3 *25:8 *212:B 41.5836 
*END

*D_NET *26 0.00135213
*CONN
*I *199:A0 I *D sky130_fd_sc_hd__mux2_1
*I *198:Y O *D sky130_fd_sc_hd__nand2_1
*CAP
1 *199:A0 0
2 *198:Y 0.000481144
3 *26:10 0.000481144
4 *26:10 *80:6 0.000205398
5 *26:10 *80:41 0.000170712
6 *26:10 *80:52 1.37349e-05
*RES
1 *198:Y *26:10 46.12 
2 *26:10 *199:A0 38 
*END

*D_NET *27 0.000513955
*CONN
*I *200:B I *D sky130_fd_sc_hd__nor2_1
*I *201:B I *D sky130_fd_sc_hd__xor2_1
*I *199:X O *D sky130_fd_sc_hd__mux2_1
*CAP
1 *200:B 7.37574e-05
2 *201:B 7.12605e-05
3 *199:X 0
4 *27:6 0.000145018
5 *200:B *77:23 2.93431e-05
6 *200:B *79:71 2.93431e-05
7 *200:B *80:41 2.16891e-05
8 *200:B *80:52 1.6891e-05
9 *201:B *80:41 6.47651e-05
10 *201:A *200:B 2.3164e-05
11 *201:A *201:B 3.87236e-05
*RES
1 *199:X *27:6 38 
2 *27:6 *201:B 39.9057 
3 *27:6 *200:B 39.8229 
*END

*D_NET *28 0.000576032
*CONN
*I *222:B1 I *D sky130_fd_sc_hd__a31o_1
*I *200:Y O *D sky130_fd_sc_hd__nor2_1
*CAP
1 *222:B1 7.5374e-05
2 *200:Y 7.5374e-05
3 *222:B1 *194:A 9.84851e-05
4 *222:B1 *77:23 3.41017e-05
5 *222:B1 *79:71 0.000269496
6 *22:6 *222:B1 2.32004e-05
*RES
1 *200:Y *222:B1 49.0036 
*END

*D_NET *29 0.00125634
*CONN
*I *202:B I *D sky130_fd_sc_hd__xnor2_1
*I *222:A3 I *D sky130_fd_sc_hd__a31o_1
*I *201:X O *D sky130_fd_sc_hd__xor2_1
*CAP
1 *202:B 0.000102091
2 *222:A3 0
3 *201:X 0.000285811
4 *29:12 0.000102091
5 *29:10 0.000285811
6 *29:10 *77:14 0.00014196
7 *29:10 *77:117 0.000196884
8 *202:A *202:B 0.000128401
9 *3:9 *29:10 1.32939e-05
*RES
1 *201:X *29:10 42.9093 
2 *29:10 *29:12 15 
3 *29:12 *222:A3 23 
4 *29:12 *202:B 25.5271 
*END

*D_NET *30 0.00620598
*CONN
*I *243:A1 I *D sky130_fd_sc_hd__a21oi_1
*I *238:C I *D sky130_fd_sc_hd__and3_1
*I *208:A_N I *D sky130_fd_sc_hd__nand3b_1
*I *209:B1_N I *D sky130_fd_sc_hd__a21bo_1
*I *203:Y O *D sky130_fd_sc_hd__nand2_1
*CAP
1 *243:A1 0.000328275
2 *238:C 1.7416e-05
3 *208:A_N 0.000291299
4 *209:B1_N 0
5 *203:Y 9.11921e-05
6 *30:40 0.000511981
7 *30:22 0.0013887
8 *30:10 0.00135489
9 *208:A_N *208:B 1.03836e-05
10 *208:A_N *208:C 0.000115062
11 *208:A_N *218:A 0
12 *208:A_N *33:12 5.50106e-05
13 *243:A1 *238:A 1.47563e-05
14 *243:A1 *240:A 5.83407e-05
15 *243:A1 *243:A2 0.000188336
16 *243:A1 *65:6 1.40958e-05
17 *243:A1 *67:10 5.90675e-06
18 *243:A1 *78:12 6.17437e-06
19 *243:A1 *78:23 0.000110666
20 *30:10 *77:62 0.000115672
21 *30:10 *78:31 8.4047e-05
22 *30:22 *226:C 5.3304e-05
23 *30:22 *228:A 0.000383782
24 *30:22 *228:B 1.59071e-05
25 *30:22 *229:B_N 0.000230604
26 *30:22 *239:A1 2.93747e-05
27 *30:22 *239:A2 1.76557e-05
28 *30:22 *239:B1 5.50049e-05
29 *30:22 *52:6 3.40295e-05
30 *30:40 *226:A 0.00011218
31 *30:40 *226:B 2.3529e-05
32 *30:40 *238:A 5.56306e-05
33 *30:40 *78:23 7.48331e-05
34 *30:40 *78:25 0.000323161
35 *30:40 *78:31 3.47781e-05
*RES
1 *203:Y *30:10 39.8229 
2 *30:10 *30:22 32.1514 
3 *30:22 *209:B1_N 23 
4 *30:22 *208:A_N 28.4271 
5 *30:10 *30:40 5.77929 
6 *30:40 *238:C 38.2279 
7 *30:40 *243:A1 46.3686 
*END

*D_NET *31 0.00183025
*CONN
*I *207:A2 I *D sky130_fd_sc_hd__a22o_1
*I *206:C I *D sky130_fd_sc_hd__nand4_2
*I *204:X O *D sky130_fd_sc_hd__and2_1
*CAP
1 *207:A2 0
2 *206:C 1.90506e-05
3 *204:X 0.000166828
4 *31:21 0.000160741
5 *31:6 0.00034662
6 *31:6 *41:10 0.000225285
7 *31:6 *42:14 0.000130896
8 *31:21 *32:12 8.0169e-05
9 *31:21 *33:8 1.00084e-05
10 *31:21 *41:10 4.21048e-05
11 *23:10 *31:6 0.000140308
12 *23:24 *206:C 1.67147e-05
13 *23:24 *31:6 0.000361741
14 *23:24 *31:21 3.55967e-05
15 *23:30 *31:21 8.28985e-05
16 *23:32 *31:21 1.12863e-05
*RES
1 *204:X *31:6 28.8621 
2 *31:6 *206:C 23.4971 
3 *31:6 *31:21 33.5836 
4 *31:21 *207:A2 23 
*END

*D_NET *32 0.00112802
*CONN
*I *207:B1 I *D sky130_fd_sc_hd__a22o_1
*I *206:D I *D sky130_fd_sc_hd__nand4_2
*I *205:X O *D sky130_fd_sc_hd__and2_1
*CAP
1 *207:B1 0.00012434
2 *206:D 0
3 *205:X 0.000119046
4 *32:12 0.000153219
5 *32:6 0.000396605
6 *207:B1 *34:8 9.61498e-05
7 *32:6 *34:8 6.17437e-06
8 *32:6 *80:58 5.12254e-05
9 *32:12 *214:C 9.37441e-05
10 *32:12 *33:8 7.35193e-06
11 *31:21 *32:12 8.0169e-05
*RES
1 *205:X *32:6 25.0507 
2 *32:6 *32:12 32.9621 
3 *32:12 *206:D 23 
4 *32:6 *207:B1 25.5479 
*END

*D_NET *33 0.00378151
*CONN
*I *233:A1 I *D sky130_fd_sc_hd__a21oi_1
*I *232:A I *D sky130_fd_sc_hd__nand3_1
*I *208:B I *D sky130_fd_sc_hd__nand3b_1
*I *209:A1 I *D sky130_fd_sc_hd__a21bo_1
*I *206:Y O *D sky130_fd_sc_hd__nand4_2
*CAP
1 *233:A1 0.000214869
2 *232:A 0
3 *208:B 0.000154174
4 *209:A1 0
5 *206:Y 0.000379743
6 *33:38 0.000625082
7 *33:12 0.000179561
8 *33:8 0.000815343
9 *208:B *208:C 0.00030718
10 *208:B *219:A2 0
11 *208:B *35:10 1.14876e-05
12 *208:B *36:6 0.000184527
13 *233:A1 *233:A2 0.000181131
14 *233:A1 *233:B1 3.77561e-06
15 *233:A1 *56:15 5.57567e-05
16 *33:8 *34:12 0.000283274
17 *33:38 *232:C 1.14154e-05
18 *33:38 *34:12 4.2812e-06
19 *33:38 *56:6 0.000128401
20 *33:38 *56:15 0.000122332
21 *208:A_N *208:B 1.03836e-05
22 *208:A_N *33:12 5.50106e-05
23 *23:30 *33:8 3.64246e-05
24 *31:21 *33:8 1.00084e-05
25 *32:12 *33:8 7.35193e-06
*RES
1 *206:Y *33:8 46.5964 
2 *33:8 *33:12 15.6214 
3 *33:12 *209:A1 23 
4 *33:12 *208:B 28.1786 
5 *33:8 *33:38 23.265 
6 *33:38 *232:A 23 
7 *33:38 *233:A1 26.9979 
*END

*D_NET *34 0.00255135
*CONN
*I *208:C I *D sky130_fd_sc_hd__nand3b_1
*I *209:A2 I *D sky130_fd_sc_hd__a21bo_1
*I *207:X O *D sky130_fd_sc_hd__a22o_1
*CAP
1 *208:C 7.17088e-05
2 *209:A2 0
3 *207:X 0.000199918
4 *34:12 0.000505602
5 *34:8 0.000633811
6 *208:C *35:10 3.7122e-06
7 *34:12 *217:A2 0
8 *34:12 *35:10 0
9 *34:12 *39:14 0
10 *206:A *34:12 0.000163352
11 *207:B1 *34:8 9.61498e-05
12 *208:A_N *208:C 0.000115062
13 *208:B *208:C 0.00030718
14 *23:30 *34:12 0.000161121
15 *32:6 *34:8 6.17437e-06
16 *33:8 *34:12 0.000283274
17 *33:38 *34:12 4.2812e-06
*RES
1 *207:X *34:8 40.5271 
2 *34:8 *34:12 25.3571 
3 *34:12 *209:A2 23 
4 *34:12 *208:C 26.5214 
*END

*D_NET *35 0.00238075
*CONN
*I *219:A1 I *D sky130_fd_sc_hd__a21oi_1
*I *218:A I *D sky130_fd_sc_hd__and3_1
*I *233:A2 I *D sky130_fd_sc_hd__a21oi_1
*I *232:B I *D sky130_fd_sc_hd__nand3_1
*I *208:Y O *D sky130_fd_sc_hd__nand3b_1
*CAP
1 *219:A1 0.000186643
2 *218:A 2.34823e-05
3 *233:A2 0.000246151
4 *232:B 1.61625e-05
5 *208:Y 0
6 *35:36 0.000246056
7 *35:10 0.000666012
8 *35:4 0.000439629
9 *219:A1 *218:C 3.98834e-05
10 *219:A1 *219:A2 8.6101e-06
11 *219:A1 *219:B1 0.000129522
12 *219:A1 *36:6 1.02949e-05
13 *233:A2 *231:A 8.58509e-05
14 *233:A2 *233:B1 4.00259e-06
15 *233:A2 *56:15 5.41288e-05
16 *233:A2 *59:8 1.09783e-05
17 *35:10 *36:6 1.02949e-05
18 *35:10 *44:8 0
19 *35:10 *45:10 0
20 *35:10 *59:8 0
21 *35:36 *36:6 6.71408e-06
22 *208:A_N *218:A 0
23 *208:B *35:10 1.14876e-05
24 *208:C *35:10 3.7122e-06
25 *233:A1 *233:A2 0.000181131
26 *34:12 *35:10 0
*RES
1 *208:Y *35:4 23 
2 *35:4 *35:10 20.7689 
3 *35:10 *232:B 38.3211 
4 *35:10 *233:A2 42.9196 
5 *35:4 *35:36 0.621429 
6 *35:36 *218:A 23.4971 
7 *35:36 *219:A1 26.0036 
*END

*D_NET *36 0.00118246
*CONN
*I *218:B I *D sky130_fd_sc_hd__and3_1
*I *219:A2 I *D sky130_fd_sc_hd__a21oi_1
*I *209:X O *D sky130_fd_sc_hd__a21bo_1
*CAP
1 *218:B 0
2 *219:A2 9.5498e-05
3 *209:X 0.000295985
4 *36:6 0.000391483
5 *219:A2 *218:C 3.98834e-05
6 *219:A2 *219:B1 9.84851e-05
7 *219:A2 *220:A 1.76557e-05
8 *219:A2 *220:B 0
9 *219:A2 *45:10 2.30292e-05
10 *208:B *219:A2 0
11 *208:B *36:6 0.000184527
12 *219:A1 *219:A2 8.6101e-06
13 *219:A1 *36:6 1.02949e-05
14 *35:10 *36:6 1.02949e-05
15 *35:36 *36:6 6.71408e-06
*RES
1 *209:X *36:6 27.4329 
2 *36:6 *219:A2 25.7757 
3 *36:6 *218:B 23 
*END

*D_NET *37 0.0038532
*CONN
*I *212:A_N I *D sky130_fd_sc_hd__and4b_1
*I *228:A I *D sky130_fd_sc_hd__xnor2_1
*I *239:A1 I *D sky130_fd_sc_hd__a21oi_1
*I *215:A1 I *D sky130_fd_sc_hd__o21bai_1
*I *210:X O *D sky130_fd_sc_hd__and4_1
*CAP
1 *212:A_N 4.29221e-05
2 *228:A 0.000177141
3 *239:A1 1.80505e-05
4 *215:A1 0.000262163
5 *210:X 0.000123187
6 *37:25 0.000472299
7 *37:8 0.000539271
8 *37:6 0.000166109
9 *212:A_N *210:C 8.60475e-05
10 *215:A1 *78:31 0
11 *215:A1 *82:48 0
12 *228:A *228:B 4.3198e-05
13 *228:A *229:B_N 0.000228903
14 *228:A *239:A2 0.000738481
15 *228:A *239:B1 5.50049e-05
16 *239:A1 *239:A2 5.50049e-05
17 *37:6 *210:C 0.000269775
18 *37:25 *52:14 9.63815e-05
19 *37:25 *77:84 7.76364e-06
20 *37:25 *78:25 0
21 *37:25 *78:31 0
22 *37:25 *82:42 0
23 *212:B *215:A1 0
24 *23:10 *215:A1 5.83407e-05
25 *30:22 *228:A 0.000383782
26 *30:22 *239:A1 2.93747e-05
*RES
1 *210:X *37:6 26.0036 
2 *37:6 *37:8 15 
3 *37:8 *215:A1 42.6814 
4 *37:8 *37:25 20.4271 
5 *37:25 *239:A1 23.6214 
6 *37:25 *228:A 31.7207 
7 *37:6 *212:A_N 24.0979 
*END

*D_NET *38 0.000695238
*CONN
*I *215:A2 I *D sky130_fd_sc_hd__o21bai_1
*I *211:Y O *D sky130_fd_sc_hd__nand2_1
*CAP
1 *215:A2 0.000126611
2 *211:Y 8.97477e-05
3 *38:8 0.000216359
4 *215:A2 *204:A 5.50106e-05
5 *38:8 *77:46 6.32688e-05
6 *38:8 *82:67 1.01436e-05
7 *38:8 *82:80 0
8 *215:B1_N *215:A2 9.67842e-05
9 *23:10 *215:A2 3.73132e-05
*RES
1 *211:Y *38:8 39.9057 
2 *38:8 *215:A2 40.5271 
*END

*D_NET *39 0.00295047
*CONN
*I *217:B1 I *D sky130_fd_sc_hd__a21o_1
*I *216:A_N I *D sky130_fd_sc_hd__and2b_1
*I *212:X O *D sky130_fd_sc_hd__and4b_1
*CAP
1 *217:B1 6.00531e-05
2 *216:A_N 0
3 *212:X 0.000895899
4 *39:14 0.000278659
5 *39:8 0.00123461
6 *39:8 *211:A 2.93845e-05
7 *39:8 *82:67 5.50106e-05
8 *39:8 *82:80 9.84794e-05
9 *39:14 *216:B 5.31444e-05
10 *39:14 *217:A1 0.000141888
11 *39:14 *217:A2 4.07612e-05
12 *39:14 *41:10 6.25829e-05
13 *39:14 *43:10 0
14 *206:A *39:14 0
15 *34:12 *39:14 0
*RES
1 *212:X *39:8 38.8879 
2 *39:8 *39:14 35.7793 
3 *39:14 *216:A_N 23 
4 *39:8 *217:B1 24.1186 
*END

*D_NET *40 0.00450041
*CONN
*I *228:B I *D sky130_fd_sc_hd__xnor2_1
*I *239:A2 I *D sky130_fd_sc_hd__a21oi_1
*I *214:A_N I *D sky130_fd_sc_hd__and3b_1
*I *213:X O *D sky130_fd_sc_hd__and4_1
*CAP
1 *228:B 4.63049e-05
2 *239:A2 0.000271018
3 *214:A_N 0
4 *213:X 0.000424703
5 *40:21 0.000730166
6 *40:10 0.000837546
7 *239:A2 *229:A_N 0.000344292
8 *239:A2 *52:6 0.000185428
9 *40:10 *204:A 0
10 *40:10 *205:B 0.00053034
11 *40:10 *82:80 4.21594e-06
12 *40:21 *53:10 0.000161121
13 *40:21 *77:46 0
14 *40:21 *82:80 6.21538e-05
15 *228:A *228:B 4.3198e-05
16 *228:A *239:A2 0.000738481
17 *239:A1 *239:A2 5.50049e-05
18 *23:24 *40:10 2.72882e-05
19 *23:24 *40:21 5.58975e-06
20 *30:22 *228:B 1.59071e-05
21 *30:22 *239:A2 1.76557e-05
*RES
1 *213:X *40:10 46.4721 
2 *40:10 *214:A_N 38 
3 *40:10 *40:21 23.5964 
4 *40:21 *239:A2 32.6943 
5 *40:21 *228:B 24.0979 
*END

*D_NET *41 0.00250506
*CONN
*I *217:A1 I *D sky130_fd_sc_hd__a21o_1
*I *221:A I *D sky130_fd_sc_hd__xnor2_1
*I *214:X O *D sky130_fd_sc_hd__and3b_1
*CAP
1 *217:A1 4.24142e-05
2 *221:A 0.000185111
3 *214:X 0.000294434
4 *41:10 0.00052196
5 *217:A1 *217:A2 0.000132665
6 *41:10 *217:A2 6.48142e-05
7 *41:10 *42:14 0.00069267
8 *206:A *41:10 5.41385e-05
9 *23:24 *41:10 4.49877e-05
10 *31:6 *41:10 0.000225285
11 *31:21 *41:10 4.21048e-05
12 *39:14 *217:A1 0.000141888
13 *39:14 *41:10 6.25829e-05
*RES
1 *214:X *41:10 47.0936 
2 *41:10 *221:A 41.0036 
3 *41:10 *217:A1 39.9057 
*END

*D_NET *42 0.00471746
*CONN
*I *217:A2 I *D sky130_fd_sc_hd__a21o_1
*I *216:B I *D sky130_fd_sc_hd__and2b_1
*I *215:Y O *D sky130_fd_sc_hd__o21bai_1
*CAP
1 *217:A2 0.000138552
2 *216:B 0.00023739
3 *215:Y 0.00111904
4 *42:16 0.000375942
5 *42:14 0.00111904
6 *206:A *216:B 0
7 *206:A *217:A2 0
8 *217:A1 *217:A2 0.000132665
9 *23:10 *42:14 0.000612535
10 *31:6 *42:14 0.000130896
11 *34:12 *217:A2 0
12 *39:14 *216:B 5.31444e-05
13 *39:14 *217:A2 4.07612e-05
14 *41:10 *217:A2 6.48142e-05
15 *41:10 *42:14 0.00069267
*RES
1 *215:Y *42:14 40.6279 
2 *42:14 *42:16 15 
3 *42:16 *216:B 42.0807 
4 *42:16 *217:A2 41.6664 
*END

*D_NET *43 0.000313815
*CONN
*I *221:B I *D sky130_fd_sc_hd__xnor2_1
*I *216:X O *D sky130_fd_sc_hd__and2b_1
*CAP
1 *221:B 0
2 *216:X 0.000156908
3 *43:10 0.000156908
4 *43:10 *245:A_N 0
5 *43:10 *49:10 0
6 *39:14 *43:10 0
*RES
1 *216:X *43:10 40.5271 
2 *43:10 *221:B 38 
*END

*D_NET *44 0.00101017
*CONN
*I *219:B1 I *D sky130_fd_sc_hd__a21oi_1
*I *218:C I *D sky130_fd_sc_hd__and3_1
*I *217:X O *D sky130_fd_sc_hd__a21o_1
*CAP
1 *219:B1 6.79312e-05
2 *218:C 1.32091e-05
3 *217:X 0.000245527
4 *44:10 8.11403e-05
5 *44:8 0.000245527
6 *219:B1 *220:A 3.58358e-05
7 *219:B1 *220:B 1.32314e-05
8 *219:A1 *218:C 3.98834e-05
9 *219:A1 *219:B1 0.000129522
10 *219:A2 *218:C 3.98834e-05
11 *219:A2 *219:B1 9.84851e-05
12 *35:10 *44:8 0
*RES
1 *217:X *44:8 42.3707 
2 *44:8 *44:10 15 
3 *44:10 *218:C 23.4557 
4 *44:10 *219:B1 25.5271 
*END

*D_NET *45 0.00234116
*CONN
*I *220:A I *D sky130_fd_sc_hd__nor2_1
*I *241:B2 I *D sky130_fd_sc_hd__a221o_1
*I *236:B1 I *D sky130_fd_sc_hd__a21o_1
*I *218:X O *D sky130_fd_sc_hd__and3_1
*CAP
1 *220:A 0.000250048
2 *241:B2 0.000197886
3 *236:B1 0.000298707
4 *218:X 0
5 *45:10 0.000639868
6 *45:4 0.000393323
7 *220:A *220:B 0.0001135
8 *220:A *47:8 5.70419e-05
9 *236:B1 *231:A 0.000112208
10 *241:B2 *57:8 2.68708e-05
11 *241:B2 *58:12 2.85422e-05
12 *241:B2 *58:18 3.47781e-05
13 *241:B2 *59:8 0.000105787
14 *45:10 *59:8 6.07611e-06
15 *219:A2 *220:A 1.76557e-05
16 *219:A2 *45:10 2.30292e-05
17 *219:B1 *220:A 3.58358e-05
18 *35:10 *45:10 0
*RES
1 *218:X *45:4 23 
2 *45:4 *45:10 17.175 
3 *45:10 *236:B1 43.9036 
4 *45:10 *241:B2 41.6457 
5 *45:4 *220:A 28.4479 
*END

*D_NET *46 0.000261871
*CONN
*I *220:B I *D sky130_fd_sc_hd__nor2_1
*I *219:Y O *D sky130_fd_sc_hd__a21oi_1
*CAP
1 *220:B 6.75696e-05
2 *219:Y 6.75696e-05
3 *219:A2 *220:B 0
4 *219:B1 *220:B 1.32314e-05
5 *220:A *220:B 0.0001135
*RES
1 *219:Y *220:B 47.9471 
*END

*D_NET *47 0.00141527
*CONN
*I *236:A1 I *D sky130_fd_sc_hd__a21o_1
*I *224:A I *D sky130_fd_sc_hd__xor2_1
*I *220:Y O *D sky130_fd_sc_hd__nor2_1
*CAP
1 *236:A1 8.83236e-05
2 *224:A 0.000180634
3 *220:Y 0.000179786
4 *47:8 0.000448743
5 *224:A *224:B 1.24376e-05
6 *224:A *50:34 0.000278634
7 *236:A1 *50:34 0.000169674
8 *220:A *47:8 5.70419e-05
*RES
1 *220:Y *47:8 40.5271 
2 *47:8 *224:A 42.2879 
3 *47:8 *236:A1 40.2579 
*END

*D_NET *48 0.00083948
*CONN
*I *223:A_N I *D sky130_fd_sc_hd__and2b_1
*I *245:B I *D sky130_fd_sc_hd__and2b_1
*I *221:Y O *D sky130_fd_sc_hd__xnor2_1
*CAP
1 *223:A_N 0
2 *245:B 0.000128157
3 *221:Y 0.000180233
4 *48:8 0.00030839
5 *245:B *245:A_N 2.32101e-05
6 *48:8 *245:A_N 0.000183733
7 *48:8 *50:8 1.57571e-05
*RES
1 *221:Y *48:8 26.9771 
2 *48:8 *245:B 25.5479 
3 *48:8 *223:A_N 23 
*END

*D_NET *49 0.00215863
*CONN
*I *245:A_N I *D sky130_fd_sc_hd__and2b_1
*I *223:B I *D sky130_fd_sc_hd__and2b_1
*I *222:X O *D sky130_fd_sc_hd__a31o_1
*CAP
1 *245:A_N 0.000121878
2 *223:B 0
3 *222:X 0.000644381
4 *49:10 0.000766259
5 *245:A_N *246:A 0
6 *245:A_N *50:8 0.000100733
7 *49:10 *246:A 0
8 *49:10 *70:8 0.000131304
9 *202:A *49:10 0.000187129
10 *245:B *245:A_N 2.32101e-05
11 *43:10 *245:A_N 0
12 *43:10 *49:10 0
13 *48:8 *245:A_N 0.000183733
*RES
1 *222:X *49:10 48.7093 
2 *49:10 *223:B 38 
3 *49:10 *245:A_N 41.3764 
*END

*D_NET *50 0.00372125
*CONN
*I *241:A1 I *D sky130_fd_sc_hd__a221o_1
*I *236:A2 I *D sky130_fd_sc_hd__a21o_1
*I *224:B I *D sky130_fd_sc_hd__xor2_1
*I *246:A I *D sky130_fd_sc_hd__nor2_1
*I *223:X O *D sky130_fd_sc_hd__and2b_1
*CAP
1 *241:A1 0.000423652
2 *236:A2 0
3 *224:B 6.27679e-05
4 *246:A 0.000314443
5 *223:X 0.000167874
6 *50:34 0.000701123
7 *50:21 0.000588183
8 *50:8 0.00073026
9 *241:A1 *241:A2 1.46586e-05
10 *241:A1 *62:8 0
11 *241:A1 *66:10 0.000141052
12 *246:A *68:8 0
13 *246:A *71:10 0
14 *50:21 *71:10 0
15 *50:34 *72:10 0
16 *224:A *224:B 1.24376e-05
17 *224:A *50:34 0.000278634
18 *236:A1 *50:34 0.000169674
19 *245:A_N *246:A 0
20 *245:A_N *50:8 0.000100733
21 *48:8 *50:8 1.57571e-05
22 *49:10 *246:A 0
*RES
1 *223:X *50:8 40.5271 
2 *50:8 *246:A 43.1164 
3 *50:8 *50:21 4.37071 
4 *50:21 *224:B 39.1186 
5 *50:21 *50:34 6.48357 
6 *50:34 *236:A2 38 
7 *50:34 *241:A1 45.6436 
*END

*D_NET *51 0.00020798
*CONN
*I *243:B1 I *D sky130_fd_sc_hd__a21oi_1
*I *225:Y O *D sky130_fd_sc_hd__nand2_1
*CAP
1 *243:B1 1.31697e-05
2 *225:Y 1.31697e-05
3 *243:B1 *225:A 5.67058e-05
4 *243:B1 *65:6 0.00010018
5 *243:B1 *67:10 2.4754e-05
*RES
1 *225:Y *243:B1 47.0979 
*END

*D_NET *52 0.00190053
*CONN
*I *229:A_N I *D sky130_fd_sc_hd__and4bb_1
*I *227:A_N I *D sky130_fd_sc_hd__and3b_1
*I *226:X O *D sky130_fd_sc_hd__and4_1
*CAP
1 *229:A_N 0.000174171
2 *227:A_N 0
3 *226:X 0.000146435
4 *52:14 0.000161121
5 *52:6 0.000481727
6 *52:6 *226:C 3.7122e-06
7 *52:6 *64:10 5.67058e-05
8 *52:14 *77:54 5.67058e-05
9 *52:14 *77:84 0.000132954
10 *52:14 *78:25 0
11 *52:14 *82:34 2.68708e-05
12 *239:A2 *229:A_N 0.000344292
13 *239:A2 *52:6 0.000185428
14 *30:22 *52:6 3.40295e-05
15 *37:25 *52:14 9.63815e-05
*RES
1 *226:X *52:6 26.48 
2 *52:6 *52:14 33.9357 
3 *52:14 *227:A_N 23 
4 *52:6 *229:A_N 26.9564 
*END

*D_NET *53 0.00152338
*CONN
*I *230:A I *D sky130_fd_sc_hd__xor2_1
*I *227:X O *D sky130_fd_sc_hd__and3b_1
*CAP
1 *230:A 0
2 *227:X 0.0005494
3 *53:10 0.0005494
4 *53:10 *229:B_N 0.000114083
5 *53:10 *230:B 0.00014411
6 *53:10 *77:46 5.26733e-06
7 *40:21 *53:10 0.000161121
*RES
1 *227:X *53:10 47.5079 
2 *53:10 *230:A 38 
*END

*D_NET *54 0.00106624
*CONN
*I *230:B I *D sky130_fd_sc_hd__xor2_1
*I *229:B_N I *D sky130_fd_sc_hd__and4bb_1
*I *228:Y O *D sky130_fd_sc_hd__xnor2_1
*CAP
1 *230:B 6.85701e-05
2 *229:B_N 0.000105702
3 *228:Y 0
4 *54:6 0.000174272
5 *229:B_N *82:34 0
6 *230:B *82:34 0
7 *228:A *229:B_N 0.000228903
8 *30:22 *229:B_N 0.000230604
9 *53:10 *229:B_N 0.000114083
10 *53:10 *230:B 0.00014411
*RES
1 *228:Y *54:6 38 
2 *54:6 *229:B_N 42.0807 
3 *54:6 *230:B 39.9057 
*END

*D_NET *55 0.000140026
*CONN
*I *239:B1 I *D sky130_fd_sc_hd__a21oi_1
*I *229:X O *D sky130_fd_sc_hd__and4bb_1
*CAP
1 *239:B1 1.50079e-05
2 *229:X 1.50079e-05
3 *228:A *239:B1 5.50049e-05
4 *30:22 *239:B1 5.50049e-05
*RES
1 *229:X *239:B1 46.6214 
*END

*D_NET *56 0.00184122
*CONN
*I *231:A I *D sky130_fd_sc_hd__inv_2
*I *233:B1 I *D sky130_fd_sc_hd__a21oi_1