*SPEF "ieee 1481-1999"
*DESIGN "SARSA_VENTAJA_e4"
*DATE "09:49:36 Friday September 12, 2025"
*VENDOR "The OpenROAD Project"
*PROGRAM "OpenROAD"
*VERSION "edf00dff99f6c40d67a30c0e22a8191c5d2ed9d6"
*DESIGN_FLOW "NAME_SCOPE LOCAL" "PIN_CAP NONE"
*DIVIDER /
*DELIMITER :
*BUS_DELIMITER []
*T_UNIT 1 NS
*C_UNIT 1 PF
*R_UNIT 1 OHM
*L_UNIT 1 HENRY

*NAME_MAP
*1 A[0]
*2 A[1]
*3 B[0]
*4 B[1]
*5 P[0]
*6 P[1]
*7 P[2]
*8 P[3]
*11 _0_
*12 _1_
*13 net1
*14 net2
*15 net3
*16 net4
*17 net5
*18 net6
*19 net7
*20 net8
*21 FILLER_0_15
*22 FILLER_0_27
*23 FILLER_0_29
*24 FILLER_0_3
*25 FILLER_0_41
*26 FILLER_0_53
*27 FILLER_0_57
*28 FILLER_0_69
*29 FILLER_1_15
*30 FILLER_1_27
*31 FILLER_1_3
*32 FILLER_1_39
*33 FILLER_1_51
*34 FILLER_1_55
*35 FILLER_1_57
*36 FILLER_1_69
*37 FILLER_2_18
*38 FILLER_2_26
*39 FILLER_2_29
*40 FILLER_2_41
*41 FILLER_2_53
*42 FILLER_2_6
*43 FILLER_2_65
*44 FILLER_2_77
*45 FILLER_3_15
*46 FILLER_3_27
*47 FILLER_3_3
*48 FILLER_3_39
*49 FILLER_3_51
*50 FILLER_3_55
*51 FILLER_3_57
*52 FILLER_3_69
*53 FILLER_4_21
*54 FILLER_4_27
*55 FILLER_4_29
*56 FILLER_4_41
*57 FILLER_4_53
*58 FILLER_4_6
*59 FILLER_4_65
*60 FILLER_4_77
*61 FILLER_5_27
*62 FILLER_5_39
*63 FILLER_5_51
*64 FILLER_5_55
*65 FILLER_5_57
*66 FILLER_5_69
*67 FILLER_5_7
*68 FILLER_6_17
*69 FILLER_6_25
*70 FILLER_6_29
*71 FILLER_6_41
*72 FILLER_6_53
*73 FILLER_6_65
*74 FILLER_6_7
*75 FILLER_6_71
*76 FILLER_7_14
*77 FILLER_7_20
*78 FILLER_7_32
*79 FILLER_7_44
*80 FILLER_7_57
*81 FILLER_7_6
*82 FILLER_7_69
*83 FILLER_8_15
*84 FILLER_8_27
*85 FILLER_8_29
*86 FILLER_8_3
*87 FILLER_8_41
*88 FILLER_8_53
*89 FILLER_8_65
*90 FILLER_8_77
*91 FILLER_9_18
*92 FILLER_9_26
*93 FILLER_9_29
*94 FILLER_9_41
*95 FILLER_9_53
*96 FILLER_9_57
*97 FILLER_9_6
*98 FILLER_9_69
*99 PHY_EDGE_ROW_0_Left_10
*100 PHY_EDGE_ROW_0_Right_0
*101 PHY_EDGE_ROW_1_Left_11
*102 PHY_EDGE_ROW_1_Right_1
*103 PHY_EDGE_ROW_2_Left_12
*104 PHY_EDGE_ROW_2_Right_2
*105 PHY_EDGE_ROW_3_Left_13
*106 PHY_EDGE_ROW_3_Right_3
*107 PHY_EDGE_ROW_4_Left_14
*108 PHY_EDGE_ROW_4_Right_4
*109 PHY_EDGE_ROW_5_Left_15
*110 PHY_EDGE_ROW_5_Right_5
*111 PHY_EDGE_ROW_6_Left_16
*112 PHY_EDGE_ROW_6_Right_6
*113 PHY_EDGE_ROW_7_Left_17
*114 PHY_EDGE_ROW_7_Right_7
*115 PHY_EDGE_ROW_8_Left_18
*116 PHY_EDGE_ROW_8_Right_8
*117 PHY_EDGE_ROW_9_Left_19
*118 PHY_EDGE_ROW_9_Right_9
*119 TAP_TAPCELL_ROW_0_20
*120 TAP_TAPCELL_ROW_0_21
*121 TAP_TAPCELL_ROW_1_22
*122 TAP_TAPCELL_ROW_2_23
*123 TAP_TAPCELL_ROW_3_24
*124 TAP_TAPCELL_ROW_4_25
*125 TAP_TAPCELL_ROW_5_26
*126 TAP_TAPCELL_ROW_6_27
*127 TAP_TAPCELL_ROW_7_28
*128 TAP_TAPCELL_ROW_8_29
*129 TAP_TAPCELL_ROW_9_30
*130 TAP_TAPCELL_ROW_9_31
*131 _2_
*132 _3_
*133 _4_
*134 _5_
*135 _6_
*136 _7_
*137 input1
*138 input2
*139 input3
*140 input4
*141 output5
*142 output6
*143 output7
*144 output8

*PORTS
A[0] I
A[1] I
B[0] I
B[1] I
P[0] O
P[1] O
P[2] O
P[3] O

*D_NET *1 0.000618322
*CONN
*P A[0] I
*I *137:A I *D sky130_fd_sc_hd__clkbuf_1
*CAP
1 A[0] 0.000295572
2 *137:A 0.000295572
3 *137:A *139:A 2.71788e-05
*RES
1 A[0] *137:A 20.7838 
*END

*D_NET *2 0.000684759
*CONN
*P A[1] I
*I *138:A I *D sky130_fd_sc_hd__buf_1
*CAP
1 A[1] 0.000327995
2 *138:A 0.000327995
3 *138:A P[3] 0
4 *138:A *140:A 2.87684e-05
*RES
1 A[1] *138:A 20.2479 
*END

*D_NET *3 0.000699525
*CONN
*P B[0] I
*I *139:A I *D sky130_fd_sc_hd__buf_1
*CAP
1 B[0] 0.000321177
2 *139:A 0.000321177
3 *139:A P[0] 2.99915e-05
4 *139:A *13:12 0
5 *137:A *139:A 2.71788e-05
*RES
1 B[0] *139:A 21.6946 
*END

*D_NET *4 0.000576861
*CONN
*P B[1] I
*I *140:A I *D sky130_fd_sc_hd__clkbuf_1
*CAP
1 B[1] 0.000262749
2 *140:A 0.000262749
3 *140:A P[3] 2.25951e-05
4 *138:A *140:A 2.87684e-05
*RES
1 B[1] *140:A 20.4803 
*END

*D_NET *5 0.000725588
*CONN
*P P[0] O
*I *141:X O *D sky130_fd_sc_hd__buf_2
*CAP
1 P[0] 0.000333414
2 *141:X 0.000333414
3 P[0] P[3] 2.87684e-05
4 *139:A P[0] 2.99915e-05
*RES
1 *141:X P[0] 20.891 
*END

*D_NET *6 0.000492366
*CONN
*P P[1] O
*I *142:X O *D sky130_fd_sc_hd__buf_2
*CAP
1 P[1] 0.000199745
2 *142:X 0.000199745
3 P[1] P[2] 9.28756e-05
*RES
1 *142:X P[1] 18.1949 
*END

*D_NET *7 0.000567153
*CONN
*P P[2] O
*I *143:X O *D sky130_fd_sc_hd__buf_2
*CAP
1 P[2] 0.000237139
2 *143:X 0.000237139
3 P[1] P[2] 9.28756e-05
*RES
1 *143:X P[2] 18.8021 
*END

*D_NET *8 0.000510997
*CONN
*P P[3] O
*I *144:X O *D sky130_fd_sc_hd__buf_2
*CAP
1 P[3] 0.000225015
2 *144:X 0.000225015
3 P[3] *141:A 9.60337e-06
4 P[0] P[3] 2.87684e-05
5 *138:A P[3] 0
6 *140:A P[3] 2.25951e-05
*RES
1 *144:X P[3] 18.1949 
*END

*D_NET *11 0.000673631
*CONN
*I *136:C I *D sky130_fd_sc_hd__and3_1
*I *132:Y O *D sky130_fd_sc_hd__nand2_1
*CAP
1 *136:C 0.000318919
2 *132:Y 0.000318919
3 *136:C *132:A 1.72894e-05
4 *136:C *133:D 0
5 *136:C *136:B 1.40415e-05
6 *136:C *16:12 4.46186e-06
*RES
1 *132:Y *136:C 32.225 
*END

*D_NET *12 0.000466826
*CONN
*I *135:A2 I *D sky130_fd_sc_hd__a21o_1
*I *131:Y O *D sky130_fd_sc_hd__inv_2
*CAP
1 *135:A2 0.000156005
2 *131:Y 0.000156005
3 *135:A2 *14:12 5.57727e-05
4 *135:A2 *16:12 9.90431e-05
*RES
1 *131:Y *135:A2 30.4929 
*END

*D_NET *13 0.00198243
*CONN
*I *132:B I *D sky130_fd_sc_hd__nand2_1
*I *133:D I *D sky130_fd_sc_hd__and4_1
*I *137:X O *D sky130_fd_sc_hd__clkbuf_1
*CAP
1 *132:B 2.0281e-05
2 *133:D 9.86196e-05
3 *137:X 0.000437365
4 *13:12 0.000556266
5 *132:B *132:A 4.38128e-05
6 *133:D *135:A1 3.34366e-05
7 *133:D *136:B 4.48583e-05
8 *133:D *15:12 0.000201127
9 *13:12 *132:A 5.52302e-05
10 *13:12 *15:8 0.000491435
11 *136:C *133:D 0
12 *139:A *13:12 0
*RES
1 *137:X *13:12 27.425 
2 *13:12 *133:D 21.1571 
3 *13:12 *132:B 9.83571 
*END

*D_NET *14 0.00277881
*CONN
*I *131:A I *D sky130_fd_sc_hd__inv_2
*I *133:C I *D sky130_fd_sc_hd__and4_1
*I *136:B I *D sky130_fd_sc_hd__and3_1
*I *138:X O *D sky130_fd_sc_hd__buf_1
*CAP
1 *131:A 0
2 *133:C 4.31953e-05
3 *136:B 0.000259379
4 *138:X 0.000735709
5 *14:12 0.000468386
6 *14:10 0.00090152
7 *133:C *133:B 1.92789e-05
8 *136:B *133:B 6.05161e-06
9 *136:B *135:A1 2.00751e-05
10 *136:B *136:A 1.72894e-05
11 *136:B *16:12 1.76039e-05
12 *14:12 *135:A1 2.1527e-05
13 *14:12 *16:12 0.000154124
14 *14:12 *20:12 0
15 *133:D *136:B 4.48583e-05
16 *135:A2 *14:12 5.57727e-05
17 *136:C *136:B 1.40415e-05
*RES
1 *138:X *14:10 23.7464 
2 *14:10 *14:12 4.375 
3 *14:12 *136:B 17.6214 
4 *14:12 *133:C 14.3357 
5 *14:10 *131:A 13.8 
*END

*D_NET *15 0.00237961
*CONN
*I *132:A I *D sky130_fd_sc_hd__nand2_1
*I *135:A1 I *D sky130_fd_sc_hd__a21o_1
*I *133:B I *D sky130_fd_sc_hd__and4_1
*I *139:X O *D sky130_fd_sc_hd__buf_1
*CAP
1 *132:A 0.000107288
2 *135:A1 0.000115146
3 *133:B 0.000110461
4 *139:X 0.000234512
5 *15:12 0.000346116
6 *15:8 0.000462308
7 *135:A1 *134:A 5.52238e-05
8 *135:A1 *141:A 0
9 *135:A1 *20:12 3.92854e-05
10 *132:B *132:A 4.38128e-05
11 *133:C *133:B 1.92789e-05
12 *133:D *135:A1 3.34366e-05
13 *133:D *15:12 0.000201127
14 *136:B *133:B 6.05161e-06
15 *136:B *135:A1 2.00751e-05
16 *136:C *132:A 1.72894e-05
17 *13:12 *132:A 5.52302e-05
18 *13:12 *15:8 0.000491435
19 *14:12 *135:A1 2.1527e-05
*RES
1 *139:X *15:8 14.3714 
2 *15:8 *15:12 7.35714 
3 *15:12 *133:B 15.5857 
4 *15:12 *135:A1 16.2821 
5 *15:8 *132:A 11.4964 
*END

*D_NET *16 0.00155562
*CONN
*I *136:A I *D sky130_fd_sc_hd__and3_1
*I *133:A I *D sky130_fd_sc_hd__and4_1
*I *140:X O *D sky130_fd_sc_hd__clkbuf_1
*CAP
1 *136:A 2.9037e-05
2 *133:A 0
3 *140:X 0.000602514
4 *16:12 0.000631551
5 *135:A2 *16:12 9.90431e-05
6 *136:B *136:A 1.72894e-05
7 *136:B *16:12 1.76039e-05
8 *136:C *16:12 4.46186e-06
9 *14:12 *16:12 0.000154124
*RES
1 *140:X *16:12 29.0679 
2 *16:12 *133:A 9.3 
3 *16:12 *136:A 9.83571 
*END

*D_NET *17 0.000629374
*CONN
*I *141:A I *D sky130_fd_sc_hd__buf_2
*I *135:X O *D sky130_fd_sc_hd__a21o_1
*CAP
1 *141:A 0.000246566
2 *135:X 0.000246566
3 *141:A *144:A 0.000126639
4 *141:A *20:12 0
5 P[3] *141:A 9.60337e-06
6 *135:A1 *141:A 0
*RES
1 *135:X *141:A 31.4214 
*END

*D_NET *18 0.000405918
*CONN
*I *142:A I *D sky130_fd_sc_hd__buf_2
*I *134:Y O *D sky130_fd_sc_hd__inv_2
*CAP
1 *142:A 0.000202959
2 *134:Y 0.000202959
*RES
1 *134:Y *142:A 22.0107 
*END

*D_NET *19 0.00342266
*CONN
*I *143:A I *D sky130_fd_sc_hd__buf_2
*I *136:X O *D sky130_fd_sc_hd__and3_1
*CAP
1 *143:A 0.00171133
2 *136:X 0.00171133
*RES
1 *136:X *143:A 40.5286 
*END

*D_NET *20 0.00379993
*CONN
*I *134:A I *D sky130_fd_sc_hd__inv_2
*I *135:B1 I *D sky130_fd_sc_hd__a21o_1
*I *144:A I *D sky130_fd_sc_hd__buf_2
*I *133:X O *D sky130_fd_sc_hd__and4_1
*CAP
1 *134:A 0.00147678
2 *135:B1 0
3 *144:A 0.000128019
4 *133:X 0.000124751
5 *20:16 0.000187859
6 *20:12 0.00166137
7 *135:A1 *134:A 5.52238e-05
8 *135:A1 *20:12 3.92854e-05
9 *141:A *144:A 0.000126639
10 *141:A *20:12 0
11 *14:12 *20:12 0
*RES
1 *133:X *20:12 20.175 
2 *20:12 *20:16 0.964286 
3 *20:16 *144:A 12.3 
4 *20:16 *135:B1 9.3 
5 *20:12 *134:A 32.1571 
*END
