*SPEF "ieee 1481-1999"
*DESIGN "mult4_SARSA_RUIDO_e9_SarsaNada_e6_SARSA_RUIDO_e9_SARSA_RUIDO_e9"
*DATE "14:29:23 Tuesday September 16, 2025"
*VENDOR "The OpenROAD Project"
*PROGRAM "OpenROAD"
*VERSION "edf00dff99f6c40d67a30c0e22a8191c5d2ed9d6"
*DESIGN_FLOW "NAME_SCOPE LOCAL" "PIN_CAP NONE"
*DIVIDER /
*DELIMITER :
*BUS_DELIMITER []
*T_UNIT 1 NS
*C_UNIT 1 PF
*R_UNIT 1 OHM
*L_UNIT 1 HENRY

*NAME_MAP
*1 A[0]
*2 A[1]
*3 A[2]
*4 A[3]
*5 B[0]
*6 B[1]
*7 B[2]
*8 B[3]
*9 P[0]
*10 P[1]
*11 P[2]
*12 P[3]
*13 P[4]
*14 P[5]
*15 P[6]
*16 P[7]
*19 _00_
*20 _01_
*21 _02_
*22 _03_
*23 _04_
*24 _05_
*25 _06_
*26 _07_
*27 _08_
*28 _09_
*29 _10_
*30 _11_
*31 _12_
*32 _13_
*33 _14_
*34 _15_
*35 _16_
*36 _17_
*37 _18_
*38 _19_
*39 _20_
*40 _21_
*41 _22_
*42 _23_
*43 _24_
*44 _25_
*45 _26_
*46 _27_
*47 _28_
*48 _29_
*49 _30_
*50 mul_ll\.pp1
*51 mul_ll\.pp2
*52 net1
*53 net10
*54 net11
*55 net12
*56 net13
*57 net14
*58 net15
*59 net16
*60 net2
*61 net3
*62 net4
*63 net5
*64 net6
*65 net7
*66 net8
*67 net9
*68 FILLER_0_15
*69 FILLER_0_27
*70 FILLER_0_29
*71 FILLER_0_3
*72 FILLER_0_35
*73 FILLER_0_47
*74 FILLER_0_55
*75 FILLER_0_57
*76 FILLER_0_69
*77 FILLER_1_19
*78 FILLER_1_29
*79 FILLER_1_41
*80 FILLER_1_53
*81 FILLER_1_57
*82 FILLER_1_7
*83 FILLER_1_70
*84 FILLER_1_76
*85 FILLER_2_11
*86 FILLER_2_17
*87 FILLER_2_21
*88 FILLER_2_36
*89 FILLER_2_48
*90 FILLER_2_54
*91 FILLER_2_7
*92 FILLER_2_73
*93 FILLER_3_11
*94 FILLER_3_20
*95 FILLER_3_3
*96 FILLER_3_32
*97 FILLER_3_44
*98 FILLER_3_55
*99 FILLER_3_70
*100 FILLER_3_78
*101 FILLER_4_11
*102 FILLER_4_17
*103 FILLER_4_25
*104 FILLER_4_29
*105 FILLER_4_41
*106 FILLER_4_45
*107 FILLER_4_53
*108 FILLER_4_59
*109 FILLER_4_7
*110 FILLER_4_71
*111 FILLER_4_79
*112 FILLER_5_33
*113 FILLER_5_54
*114 FILLER_5_6
*115 FILLER_5_66
*116 FILLER_5_78
*117 FILLER_6_18
*118 FILLER_6_26
*119 FILLER_6_29
*120 FILLER_6_37
*121 FILLER_6_58
*122 FILLER_6_70
*123 FILLER_6_78
*124 FILLER_7_20
*125 FILLER_7_29
*126 FILLER_7_3
*127 FILLER_7_37
*128 FILLER_7_50
*129 FILLER_7_57
*130 FILLER_7_70
*131 FILLER_7_76
*132 FILLER_8_11
*133 FILLER_8_23
*134 FILLER_8_27
*135 FILLER_8_29
*136 FILLER_8_37
*137 FILLER_8_47
*138 FILLER_8_74
*139 FILLER_8_80
*140 FILLER_9_16
*141 FILLER_9_29
*142 FILLER_9_41
*143 FILLER_9_45
*144 FILLER_9_51
*145 FILLER_9_55
*146 FILLER_9_57
*147 FILLER_9_63
*148 FILLER_9_75
*149 PHY_EDGE_ROW_0_Left_10
*150 PHY_EDGE_ROW_0_Right_0
*151 PHY_EDGE_ROW_1_Left_11
*152 PHY_EDGE_ROW_1_Right_1
*153 PHY_EDGE_ROW_2_Left_12
*154 PHY_EDGE_ROW_2_Right_2
*155 PHY_EDGE_ROW_3_Left_13
*156 PHY_EDGE_ROW_3_Right_3
*157 PHY_EDGE_ROW_4_Left_14
*158 PHY_EDGE_ROW_4_Right_4
*159 PHY_EDGE_ROW_5_Left_15
*160 PHY_EDGE_ROW_5_Right_5
*161 PHY_EDGE_ROW_6_Left_16
*162 PHY_EDGE_ROW_6_Right_6
*163 PHY_EDGE_ROW_7_Left_17
*164 PHY_EDGE_ROW_7_Right_7
*165 PHY_EDGE_ROW_8_Left_18
*166 PHY_EDGE_ROW_8_Right_8
*167 PHY_EDGE_ROW_9_Left_19
*168 PHY_EDGE_ROW_9_Right_9
*169 TAP_TAPCELL_ROW_0_20
*170 TAP_TAPCELL_ROW_0_21
*171 TAP_TAPCELL_ROW_1_22
*172 TAP_TAPCELL_ROW_2_23
*173 TAP_TAPCELL_ROW_3_24
*174 TAP_TAPCELL_ROW_4_25
*175 TAP_TAPCELL_ROW_5_26
*176 TAP_TAPCELL_ROW_6_27
*177 TAP_TAPCELL_ROW_7_28
*178 TAP_TAPCELL_ROW_8_29
*179 TAP_TAPCELL_ROW_9_30
*180 TAP_TAPCELL_ROW_9_31
*181 _31_
*182 _32_
*183 _33_
*184 _34_
*185 _35_
*186 _36_
*187 _37_
*188 _38_
*189 _39_
*190 _40_
*191 _41_
*192 _42_
*193 _43_
*194 _44_
*195 _45_
*196 _46_
*197 _47_
*198 _48_
*199 _49_
*200 _50_
*201 _51_
*202 _52_
*203 _53_
*204 _54_
*205 _55_
*206 _56_
*207 _57_
*208 _58_
*209 _59_
*210 _60_
*211 _61_
*212 _62_
*213 _63_
*214 _64_
*215 _65_
*216 _66_
*217 _67_
*218 _68_
*219 _69_
*220 _70_
*221 _71_
*222 input1
*223 input2
*224 input3
*225 input4
*226 input5
*227 input6
*228 input7
*229 input8
*230 output10
*231 output11
*232 output12
*233 output13
*234 output14
*235 output15
*236 output16
*237 output9

*PORTS
A[0] I
A[1] I
A[2] I
A[3] I
B[0] I
B[1] I
B[2] I
B[3] I
P[0] O
P[1] O
P[2] O
P[3] O
P[4] O
P[5] O
P[6] O
P[7] O

*D_NET *1 0.00188608
*CONN
*P A[0] I
*I *222:A I *D sky130_fd_sc_hd__buf_1
*CAP
1 A[0] 0.000785557
2 *222:A 0.000785557
3 *222:A P[0] 4.32957e-05
4 *222:A *227:A 0.000120612
5 *222:A *64:10 0.000151061
*RES
1 A[0] *222:A 29.8359 
*END

*D_NET *2 0.000872578
*CONN
*P A[1] I
*I *223:A I *D sky130_fd_sc_hd__clkbuf_2
*CAP
1 A[1] 0.000383428
2 *223:A 0.000383428
3 *223:A P[1] 0
4 *223:A *182:B 4.50149e-05
5 *223:A *226:A 2.87684e-05
6 *223:A *229:A 3.19385e-05
7 *223:A *64:18 0
*RES
1 A[1] *223:A 18.7868 
*END

*D_NET *3 0.000662113
*CONN
*P A[2] I
*I *224:A I *D sky130_fd_sc_hd__clkbuf_2
*CAP
1 A[2] 0.000317467
2 *224:A 0.000317467
3 *224:A P[2] 2.71788e-05
*RES
1 A[2] *224:A 21.1946 
*END

*D_NET *4 0.000946634
*CONN
*P A[3] I
*I *225:A I *D sky130_fd_sc_hd__buf_1
*CAP
1 A[3] 0.000473317
2 *225:A 0.000473317
3 *225:A P[7] 0
4 *225:A *236:A 0
*RES
1 A[3] *225:A 23.05 
*END

*D_NET *5 0.000670164
*CONN
*P B[0] I
*I *226:A I *D sky130_fd_sc_hd__clkbuf_1
*CAP
1 B[0] 0.000305702
2 *226:A 0.000305702
3 *226:A *182:B 0
4 *226:A *228:A 2.99915e-05
5 *226:A *229:A 0
6 *223:A *226:A 2.87684e-05
*RES
1 B[0] *226:A 21.391 
*END

*D_NET *6 0.000997509
*CONN
*P B[1] I
*I *227:A I *D sky130_fd_sc_hd__dlymetal6s2s_1
*CAP
1 B[1] 0.000424064
2 *227:A 0.000424064
3 *227:A P[0] 2.87684e-05
4 *227:A P[1] 0
5 *222:A *227:A 0.000120612
*RES
1 B[1] *227:A 23.516 
*END

*D_NET *7 0.000730302
*CONN
*P B[2] I
*I *228:A I *D sky130_fd_sc_hd__clkbuf_2
*CAP
1 B[2] 0.000335159
2 *228:A 0.000335159
3 *228:A P[2] 2.99915e-05
4 *226:A *228:A 2.99915e-05
*RES
1 B[2] *228:A 21.8017 
*END

*D_NET *8 0.000777442
*CONN
*P B[3] I
*I *229:A I *D sky130_fd_sc_hd__clkbuf_2
*CAP
1 B[3] 0.000361454
2 *229:A 0.000361454
3 *229:A P[1] 2.25951e-05
4 *229:A *182:B 0
5 *223:A *229:A 3.19385e-05
6 *226:A *229:A 0
*RES
1 B[3] *229:A 22.4088 
*END

*D_NET *9 0.00116103
*CONN
*P P[0] O
*I *237:X O *D sky130_fd_sc_hd__buf_2
*CAP
1 P[0] 0.000477668
2 *237:X 0.000477668
3 P[0] P[1] 0.000133629
4 P[0] *64:10 0
5 P[0] *64:12 0
6 P[0] *64:18 0
7 *222:A P[0] 4.32957e-05
8 *227:A P[0] 2.87684e-05
*RES
1 *237:X P[0] 22.9436 
*END

*D_NET *10 0.00101041
*CONN
*P P[1] O
*I *230:X O *D sky130_fd_sc_hd__buf_2
*CAP
1 P[1] 0.000358745
2 *230:X 0.000358745
3 P[1] *237:A 0.000136697
4 P[0] P[1] 0.000133629
5 *223:A P[1] 0
6 *227:A P[1] 0
7 *229:A P[1] 2.25951e-05
*RES
1 *230:X P[1] 23.0304 
*END

*D_NET *11 0.000646764
*CONN
*P P[2] O
*I *231:X O *D sky130_fd_sc_hd__buf_2
*CAP
1 P[2] 0.000294797
2 *231:X 0.000294797
3 *224:A P[2] 2.71788e-05
4 *228:A P[2] 2.99915e-05
*RES
1 *231:X P[2] 20.891 
*END

*D_NET *12 0.000951293
*CONN
*P P[3] O
*I *232:X O *D sky130_fd_sc_hd__buf_2
*CAP
1 P[3] 0.000475646
2 *232:X 0.000475646
*RES
1 *232:X P[3] 22.05 
*END

*D_NET *13 0.000501113
*CONN
*P P[4] O
*I *233:X O *D sky130_fd_sc_hd__buf_2
*CAP
1 P[4] 0.000208532
2 *233:X 0.000208532
3 P[4] P[5] 8.40493e-05
*RES
1 *233:X P[4] 18.1949 
*END

*D_NET *14 0.000521381
*CONN
*P P[5] O
*I *234:X O *D sky130_fd_sc_hd__buf_2
*CAP
1 P[5] 0.000218666
2 *234:X 0.000218666
3 P[4] P[5] 8.40493e-05
*RES
1 *234:X P[5] 18.4985 
*END

*D_NET *15 0.000474378
*CONN
*P P[6] O
*I *235:X O *D sky130_fd_sc_hd__buf_2
*CAP
1 P[6] 0.000237189
2 *235:X 0.000237189
*RES
1 *235:X P[6] 18.1949 
*END

*D_NET *16 0.000911701
*CONN
*P P[7] O
*I *236:X O *D sky130_fd_sc_hd__buf_2
*CAP
1 P[7] 0.00045585
2 *236:X 0.00045585
3 *225:A P[7] 0
*RES
1 *236:X P[7] 22.8536 
*END

*D_NET *19 0.0006299
*CONN
*I *185:A I *D sky130_fd_sc_hd__or2_1
*I *186:A I *D sky130_fd_sc_hd__nand2_1
*I *183:X O *D sky130_fd_sc_hd__and2_1
*CAP
1 *185:A 9.54027e-05
2 *186:A 0
3 *183:X 0.000115783
4 *19:12 0.000211186
5 *185:A *185:B 4.80569e-05
6 *185:A *187:A 2.15245e-05
7 *19:12 *20:12 6.42242e-05
8 *19:12 *61:12 4.48206e-05
9 *19:12 *61:23 2.89016e-05
*RES
1 *183:X *19:12 20.4786 
2 *19:12 *186:A 9.3 
3 *19:12 *185:A 11.0857 
*END

*D_NET *20 0.000878395
*CONN
*I *186:B I *D sky130_fd_sc_hd__nand2_1
*I *185:B I *D sky130_fd_sc_hd__or2_1
*I *184:X O *D sky130_fd_sc_hd__mux2_1
*CAP
1 *186:B 0
2 *185:B 0.000102437
3 *184:X 0.000263143
4 *20:12 0.00036558
5 *185:B *187:A 6.05161e-06
6 *20:12 *183:A 0
7 *20:12 *37:8 0
8 *20:12 *61:12 0
9 *20:12 *61:23 0
10 *20:12 *64:22 2.89016e-05
11 *20:12 *65:10 0
12 *185:A *185:B 4.80569e-05
13 *19:12 *20:12 6.42242e-05
*RES
1 *184:X *20:12 22.9071 
2 *20:12 *185:B 11.5143 
3 *20:12 *186:B 9.3 
*END

*D_NET *21 0.000563602
*CONN
*I *187:A I *D sky130_fd_sc_hd__and2_1
*I *185:X O *D sky130_fd_sc_hd__or2_1
*CAP
1 *187:A 0.000200531
2 *185:X 0.000200531
3 *187:A *22:8 6.74815e-05
4 *187:A *61:12 6.74815e-05
5 *185:A *187:A 2.15245e-05
6 *185:B *187:A 6.05161e-06
*RES
1 *185:X *187:A 31.0107 
*END

*D_NET *22 0.00203621
*CONN
*I *204:A I *D sky130_fd_sc_hd__or3b_1
*I *187:B I *D sky130_fd_sc_hd__and2_1
*I *218:A I *D sky130_fd_sc_hd__xnor2_1
*I *186:Y O *D sky130_fd_sc_hd__nand2_1
*CAP
1 *204:A 0.000301516
2 *187:B 0.000112145
3 *218:A 0.000300193
4 *186:Y 0.00010251
5 *22:21 0.000413661
6 *22:8 0.000402703
7 *204:A *203:B 5.52238e-05
8 *204:A *204:B 7.77751e-05
9 *204:A *204:C_N 0.000183726
10 *204:A *218:B 1.92789e-05
11 *218:A *203:A_N 0
12 *218:A *218:B 0
13 *218:A *61:12 0
14 *22:8 *204:C_N 0
15 *22:8 *37:8 0
16 *22:8 *61:12 0
17 *187:A *22:8 6.74815e-05
*RES
1 *186:Y *22:8 15.7464 
2 *22:8 *218:A 18.6393 
3 *22:8 *22:21 4.5 
4 *22:21 *187:B 11.0679 
5 *22:21 *204:A 15.6036 
*END

*D_NET *23 0.00230854
*CONN
*I *196:B1_N I *D sky130_fd_sc_hd__a21bo_1
*I *195:A I *D sky130_fd_sc_hd__or3b_1
*I *188:Y O *D sky130_fd_sc_hd__nand2_1
*CAP
1 *196:B1_N 0.000170226
2 *195:A 0.000223796
3 *188:Y 0.000274586
4 *23:6 0.000668608
5 *195:A *195:B 0.000150625
6 *195:A *195:C_N 9.71197e-05
7 *195:A *27:10 0.000137939
8 *195:A *29:12 7.79781e-06
9 *195:A *31:10 0.000165985
10 *195:A *43:10 0
11 *196:B1_N *196:A1 1.21258e-05
12 *196:B1_N *196:A2 2.59355e-05
13 *23:6 *193:A 0.00014183
14 *23:6 *193:B 9.35114e-06
15 *23:6 *196:A2 2.14658e-05
16 *23:6 *31:10 5.52302e-05
17 *23:6 *60:41 7.49251e-05
18 *23:6 *60:52 7.09928e-05
*RES
1 *188:Y *23:6 14.3536 
2 *23:6 *195:A 23.925 
3 *23:6 *196:B1_N 11.8893 
*END

*D_NET *24 0.00352521
*CONN
*I *212:D I *D sky130_fd_sc_hd__and4_1
*I *213:B1 I *D sky130_fd_sc_hd__a22o_1
*I *193:A I *D sky130_fd_sc_hd__or4bb_1
*I *192:A_N I *D sky130_fd_sc_hd__and4bb_1
*I *189:X O *D sky130_fd_sc_hd__and4_1
*CAP
1 *212:D 0.000144717
2 *213:B1 0
3 *193:A 0.000120435
4 *192:A_N 0
5 *189:X 0.000303799
6 *24:30 0.000234927
7 *24:15 0.000432585
8 *24:6 0.00052574
9 *193:A *194:A3 6.8646e-06
10 *193:A *196:A2 9.71197e-05
11 *193:A *27:10 7.2754e-05
12 *193:A *29:10 7.92975e-05
13 *193:A *29:12 1.52978e-05
14 *212:D *212:A 0.000245375
15 *212:D *212:B 2.14757e-05
16 *212:D *212:C 0.000274294
17 *212:D *214:B 3.57366e-05
18 *212:D *46:8 2.44318e-05
19 *212:D *66:72 2.59355e-05
20 *24:6 *66:29 0.000244184
21 *24:6 *66:44 6.2127e-05
22 *24:15 *27:10 5.52238e-05
23 *24:15 *66:44 5.20669e-05
24 *24:15 *66:57 8.63034e-05
25 *24:30 *194:A3 0.000126891
26 *24:30 *29:10 8.89289e-05
27 *24:30 *66:63 6.8646e-06
28 *23:6 *193:A 0.00014183
*RES
1 *189:X *24:6 14.7643 
2 *24:6 *192:A_N 9.3 
3 *24:6 *24:15 8.32143 
4 *24:15 *193:A 17.4071 
5 *24:15 *24:30 7.35714 
6 *24:30 *213:B1 9.3 
7 *24:30 *212:D 13.9786 
*END

*D_NET *25 0.00717565
*CONN
*I *202:B1 I *D sky130_fd_sc_hd__a22o_1
*I *198:C I *D sky130_fd_sc_hd__and4_1
*I *208:S I *D sky130_fd_sc_hd__mux2_1
*I *194:A3 I *D sky130_fd_sc_hd__a32o_1
*I *190:Y O *D sky130_fd_sc_hd__nand4_2
*CAP
1 *202:B1 0
2 *198:C 6.42998e-05
3 *208:S 0.000164486
4 *194:A3 0.000661018
5 *190:Y 0.000382628
6 *25:24 0.00145817
7 *25:16 0.000948754
8 *25:10 0.000634422
9 *194:A3 *194:A2 4.60153e-05
10 *194:A3 *194:B1 3.50166e-05
11 *194:A3 *195:B 3.34366e-05
12 *194:A3 *212:B 1.67502e-05
13 *194:A3 *27:10 0.000310314
14 *194:A3 *61:61 5.52302e-05
15 *194:A3 *62:39 0.000121161
16 *198:C *198:A 0.000144497
17 *198:C *61:36 3.18676e-05
18 *198:C *61:43 7.20274e-05
19 *208:S *208:A0 0.000199934
20 *208:S *208:A1 1.74352e-05
21 *208:S *43:10 8.57023e-05
22 *25:10 *32:12 5.84171e-05
23 *25:10 *61:23 5.80706e-06
24 *25:10 *61:36 2.49484e-05
25 *25:10 *65:19 0
26 *25:10 *65:32 0
27 *25:10 *66:22 0.000274288
28 *25:16 *198:A 0.00043491
29 *25:16 *32:12 5.80706e-06
30 *25:16 *33:10 5.52238e-05
31 *25:16 *61:23 2.84494e-05
32 *25:16 *64:22 5.52302e-05
33 *25:16 *65:10 0
34 *25:24 *207:B 3.43495e-05
35 *25:24 *208:A0 0.000104965
36 *25:24 *209:A1 0.000395261
37 *25:24 *43:10 5.52302e-05
38 *25:24 *61:43 1.40389e-05
39 *25:24 *61:49 1.18097e-05
40 *193:A *194:A3 6.8646e-06
41 *24:30 *194:A3 0.000126891
*RES
1 *190:Y *25:10 20.4607 
2 *25:10 *25:16 10.2857 
3 *25:16 *25:24 9.625 
4 *25:24 *194:A3 31.0679 
5 *25:24 *208:S 13.5321 
6 *25:16 *198:C 11.8 
7 *25:10 *202:B1 13.8 
*END

*D_NET *26 0.001869
*CONN
*I *192:B_N I *D sky130_fd_sc_hd__and4bb_1
*I *193:B I *D sky130_fd_sc_hd__or4bb_1
*I *191:Y O *D sky130_fd_sc_hd__nand2_1
*CAP
1 *192:B_N 1.21645e-05
2 *193:B 0.000290071
3 *191:Y 0.000300535
4 *26:10 0.00060277
5 *192:B_N *189:C 5.49544e-05
6 *192:B_N *66:44 5.49544e-05
7 *193:B *193:D_N 4.24111e-05
8 *193:B *60:41 5.20751e-05
9 *193:B *60:52 7.19623e-05
10 *193:B *65:58 0.00017309
11 *26:10 *191:A 0.000162412
12 *26:10 *194:B1 2.04098e-05
13 *26:10 *62:16 2.18374e-05
14 *23:6 *193:B 9.35114e-06
*RES
1 *191:Y *26:10 18.925 
2 *26:10 *193:B 18.6393 
3 *26:10 *192:B_N 14.3357 
*END

*D_NET *27 0.00151545
*CONN
*I *209:B1 I *D sky130_fd_sc_hd__a31oi_2
*I *195:B I *D sky130_fd_sc_hd__or3b_1
*I *192:X O *D sky130_fd_sc_hd__and4bb_1
*CAP
1 *209:B1 0
2 *195:B 0.000105929
3 *192:X 0.000240462
4 *27:10 0.000346391
5 *195:B *195:C_N 2.89114e-05
6 *195:B *43:10 3.34672e-05
7 *193:A *27:10 7.2754e-05
8 *194:A3 *195:B 3.34366e-05
9 *194:A3 *27:10 0.000310314
10 *195:A *195:B 0.000150625
11 *195:A *27:10 0.000137939
12 *24:15 *27:10 5.52238e-05
*RES
1 *192:X *27:10 19.2286 
2 *27:10 *195:B 16.2821 
3 *27:10 *209:B1 13.8 
*END

*D_NET *28 0.000400952
*CONN
*I *196:A1 I *D sky130_fd_sc_hd__a21bo_1
*I *193:X O *D sky130_fd_sc_hd__or4bb_1
*CAP
1 *196:A1 0.00012446
2 *193:X 0.00012446
3 *196:A1 *196:A2 0.000139907
4 *196:B1_N *196:A1 1.21258e-05
*RES
1 *193:X *196:A1 20.7964 
*END

*D_NET *29 0.00289465
*CONN
*I *196:A2 I *D sky130_fd_sc_hd__a21bo_1
*I *209:A3 I *D sky130_fd_sc_hd__a31oi_2
*I *195:C_N I *D sky130_fd_sc_hd__or3b_1
*I *194:X O *D sky130_fd_sc_hd__a32o_1
*CAP
1 *196:A2 6.02135e-05
2 *209:A3 4.70525e-05
3 *195:C_N 0.000249712
4 *194:X 0.000193106
5 *29:12 0.000372681
6 *29:10 0.000329236
7 *195:C_N *30:12 3.69047e-06
8 *195:C_N *31:10 0.000218734
9 *195:C_N *61:61 2.61337e-05
10 *209:A3 *208:A0 0.000107333
11 *209:A3 *208:A1 0.000139632
12 *209:A3 *61:49 1.8461e-05
13 *209:A3 *61:53 2.77355e-05
14 *29:10 *194:A2 5.33005e-05
15 *29:10 *61:61 9.30065e-05
16 *29:10 *66:63 0.000126439
17 *29:10 *66:72 4.08637e-05
18 *29:12 *31:10 0.000100831
19 *29:12 *61:61 8.47107e-05
20 *193:A *196:A2 9.71197e-05
21 *193:A *29:10 7.92975e-05
22 *193:A *29:12 1.52978e-05
23 *195:A *195:C_N 9.71197e-05
24 *195:A *29:12 7.79781e-06
25 *195:B *195:C_N 2.89114e-05
26 *196:A1 *196:A2 0.000139907
27 *196:B1_N *196:A2 2.59355e-05
28 *23:6 *196:A2 2.14658e-05
29 *24:30 *29:10 8.89289e-05
*RES
1 *194:X *29:10 18.8179 
2 *29:10 *29:12 2.25 
3 *29:12 *195:C_N 18.8536 
4 *29:12 *209:A3 15.5857 
5 *29:10 *196:A2 15.5679 
*END

*D_NET *30 0.000595572
*CONN
*I *199:A I *D sky130_fd_sc_hd__and3_1
*I *200:A1 I *D sky130_fd_sc_hd__a21oi_1
*I *195:X O *D sky130_fd_sc_hd__or3b_1
*CAP
1 *199:A 8.60975e-05
2 *200:A1 0
3 *195:X 0.000137163
4 *30:12 0.00022326
5 *199:A *199:C 6.87172e-05
6 *30:12 *31:10 7.6644e-05
7 *195:C_N *30:12 3.69047e-06
*RES
1 *195:X *30:12 20.2821 
2 *30:12 *200:A1 9.3 
3 *30:12 *199:A 10.8 
*END

*D_NET *31 0.00175892
*CONN
*I *200:A2 I *D sky130_fd_sc_hd__a21oi_1
*I *199:B I *D sky130_fd_sc_hd__and3_1
*I *196:X O *D sky130_fd_sc_hd__a21bo_1
*CAP
1 *200:A2 0
2 *199:B 0.00016844
3 *196:X 0.000366943
4 *31:10 0.000535383
5 *199:B *199:C 6.65985e-05
6 *199:B *210:B 0
7 *199:B *215:A1 0
8 *199:B *35:14 4.1331e-06
9 *31:10 *210:B 0
10 *195:A *31:10 0.000165985
11 *195:C_N *31:10 0.000218734
12 *23:6 *31:10 5.52302e-05
13 *29:12 *31:10 0.000100831
14 *30:12 *31:10 7.6644e-05
*RES
1 *196:X *31:10 20.8357 
2 *31:10 *199:B 16.1929 
3 *31:10 *200:A2 13.8 
*END

*D_NET *32 0.00118623
*CONN
*I *198:D I *D sky130_fd_sc_hd__and4_1
*I *202:B2 I *D sky130_fd_sc_hd__a22o_1
*I *197:X O *D sky130_fd_sc_hd__a22o_1
*CAP
1 *198:D 0.000153321
2 *202:B2 0
3 *197:X 0.000159247
4 *32:12 0.000312568
5 *198:D *198:A 0.000149489
6 *198:D *202:A1 3.99614e-06
7 *198:D *61:36 0.000230482
8 *198:D *64:22 7.61932e-05
9 *32:12 *60:41 3.67142e-05
10 *32:12 *65:10 0
11 *32:12 *65:19 0
12 *25:10 *32:12 5.84171e-05
13 *25:16 *32:12 5.80706e-06
*RES
1 *197:X *32:12 20.8893 
2 *32:12 *202:B2 9.3 
3 *32:12 *198:D 13.55 
*END

*D_NET *33 0.00292438
*CONN
*I *199:C I *D sky130_fd_sc_hd__and3_1
*I *200:B1 I *D sky130_fd_sc_hd__a21oi_1
*I *204:B I *D sky130_fd_sc_hd__or3b_1
*I *203:A_N I *D sky130_fd_sc_hd__and2b_1
*I *198:X O *D sky130_fd_sc_hd__and4_1
*CAP
1 *199:C 0.000177991
2 *200:B1 0
3 *204:B 9.72258e-05
4 *203:A_N 7.20124e-05
5 *198:X 0.000195
6 *33:34 0.000726119
7 *33:12 0.000260851
8 *33:10 0.00083474
9 *203:A_N *204:C_N 2.61337e-05
10 *203:A_N *37:8 1.76135e-05
11 *33:10 *37:8 0.000156186
12 *33:12 *37:8 9.21958e-05
13 *199:A *199:C 6.87172e-05
14 *199:B *199:C 6.65985e-05
15 *204:A *204:B 7.77751e-05
16 *218:A *203:A_N 0
17 *25:16 *33:10 5.52238e-05
*RES
1 *198:X *33:10 18.1036 
2 *33:10 *33:12 2.25 
3 *33:12 *203:A_N 15.1393 
4 *33:12 *204:B 15.1571 
5 *33:10 *33:34 12.4286 
6 *33:34 *200:B1 9.3 
7 *33:34 *199:C 13.675 
*END

*D_NET *34 0.00175946
*CONN
*I *201:A I *D sky130_fd_sc_hd__nor2_1
*I *216:A1 I *D sky130_fd_sc_hd__a21o_1
*I *206:B1_N I *D sky130_fd_sc_hd__o21ba_1
*I *199:X O *D sky130_fd_sc_hd__and3_1
*CAP
1 *201:A 0
2 *216:A1 0.000203534
3 *206:B1_N 1.13549e-05
4 *199:X 0.000162715
5 *34:18 0.000355106
6 *34:12 0.000302933
7 *216:A1 *205:A 1.02821e-05
8 *216:A1 *211:A 1.33343e-05
9 *216:A1 *211:B 5.33786e-05
10 *216:A1 *215:A1 0
11 *216:A1 *39:21 0
12 *216:A1 *49:10 3.51442e-05
13 *34:12 *205:B 0
14 *34:12 *210:B 6.05161e-06
15 *34:12 *215:A1 0.000101545
16 *34:12 *35:14 0
17 *34:18 *205:A 0.000360894
18 *34:18 *206:A1 5.71472e-05
19 *34:18 *35:14 5.46298e-05
20 *34:18 *39:21 3.14078e-05
*RES
1 *199:X *34:12 20.7821 
2 *34:12 *34:18 4.67857 
3 *34:18 *206:B1_N 9.80446 
4 *34:18 *216:A1 21.9429 
5 *34:12 *201:A 9.3 
*END

*D_NET *35 0.0011813
*CONN
*I *206:A1 I *D sky130_fd_sc_hd__o21ba_1
*I *201:B I *D sky130_fd_sc_hd__nor2_1
*I *200:Y O *D sky130_fd_sc_hd__a21oi_1
*CAP
1 *206:A1 7.34995e-06
2 *201:B 0
3 *200:Y 0.000261068
4 *35:14 0.000268418
5 *206:A1 *39:21 2.44318e-05
6 *35:14 *39:6 0.000446603
7 *35:14 *39:21 5.75139e-05
8 *199:B *35:14 4.1331e-06
9 *34:12 *35:14 0
10 *34:18 *206:A1 5.71472e-05
11 *34:18 *35:14 5.46298e-05
*RES
1 *200:Y *35:14 25.0143 
2 *35:14 *201:B 9.3 
3 *35:14 *206:A1 9.83571 
*END

*D_NET *36 0.00109828
*CONN
*I *205:A I *D sky130_fd_sc_hd__xnor2_1
*I *201:Y O *D sky130_fd_sc_hd__nor2_1
*CAP
1 *205:A 0.000360524
2 *201:Y 0.000360524
3 *205:A *205:B 0
4 *205:A *211:A 6.05161e-06
5 *216:A1 *205:A 1.02821e-05
6 *34:18 *205:A 0.000360894
*RES
1 *201:Y *205:A 33.0643 
*END

*D_NET *37 0.00134215
*CONN
*I *203:B I *D sky130_fd_sc_hd__and2b_1
*I *204:C_N I *D sky130_fd_sc_hd__or3b_1
*I *202:X O *D sky130_fd_sc_hd__a22o_1
*CAP
1 *203:B 2.85076e-05
2 *204:C_N 0.000116412
3 *202:X 0.000219816
4 *37:8 0.000364735
5 *37:8 *61:23 8.16036e-05
6 *203:A_N *204:C_N 2.61337e-05
7 *203:A_N *37:8 1.76135e-05
8 *204:A *203:B 5.52238e-05
9 *204:A *204:C_N 0.000183726
10 *20:12 *37:8 0
11 *22:8 *204:C_N 0
12 *22:8 *37:8 0
13 *33:10 *37:8 0.000156186
14 *33:12 *37:8 9.21958e-05
*RES
1 *202:X *37:8 19.9964 
2 *37:8 *204:C_N 16.3 
3 *37:8 *203:B 14.3357 
*END

*D_NET *38 0.0003393
*CONN
*I *218:B I *D sky130_fd_sc_hd__xnor2_1
*I *203:X O *D sky130_fd_sc_hd__and2b_1
*CAP
1 *218:B 0.00016001
2 *203:X 0.00016001
3 *204:A *218:B 1.92789e-05
4 *218:A *218:B 0
*RES
1 *203:X *218:B 30.0821 
*END

*D_NET *39 0.00297956
*CONN
*I *206:A2 I *D sky130_fd_sc_hd__o21ba_1
*I *205:B I *D sky130_fd_sc_hd__xnor2_1
*I *215:A1 I *D sky130_fd_sc_hd__a21oi_1
*I *204:X O *D sky130_fd_sc_hd__or3b_1
*CAP
1 *206:A2 0
2 *205:B 0.000266018
3 *215:A1 0.000131999
4 *204:X 0.000499059
5 *39:21 0.00038651
6 *39:6 0.000751551
7 *215:A1 *210:A 0.000129868
8 *215:A1 *210:B 0.000153054
9 *199:B *215:A1 0
10 *205:A *205:B 0
11 *206:A1 *39:21 2.44318e-05
12 *216:A1 *215:A1 0
13 *216:A1 *39:21 0
14 *34:12 *205:B 0
15 *34:12 *215:A1 0.000101545
16 *34:18 *39:21 3.14078e-05
17 *35:14 *39:6 0.000446603
18 *35:14 *39:21 5.75139e-05
*RES
1 *204:X *39:6 18.05 
2 *39:6 *215:A1 22.0679 
3 *39:6 *39:21 2.5 
4 *39:21 *205:B 22.6214 
5 *39:21 *206:A2 9.3 
*END

*D_NET *40 0.000175757
*CONN
*I *211:A I *D sky130_fd_sc_hd__xnor2_1
*I *206:X O *D sky130_fd_sc_hd__o21ba_1
*CAP
1 *211:A 7.81856e-05
2 *206:X 7.81856e-05
3 *205:A *211:A 6.05161e-06
4 *216:A1 *211:A 1.33343e-05
*RES
1 *206:X *211:A 19.9571 
*END

*D_NET *41 0.00187068
*CONN
*I *208:A1 I *D sky130_fd_sc_hd__mux2_1
*I *207:Y O *D sky130_fd_sc_hd__nand2_1
*CAP
1 *208:A1 0.000565612
2 *207:Y 0.000565612
3 *208:A1 *208:A0 0.000542163
4 *208:A1 *61:49 1.32056e-05
5 *208:A1 *61:53 2.70242e-05
6 *208:S *208:A1 1.74352e-05
7 *209:A3 *208:A1 0.000139632
*RES
1 *207:Y *208:A1 26.5286 
*END

*D_NET *42 0.000805057
*CONN
*I *215:B1 I *D sky130_fd_sc_hd__a21oi_1
*I *210:A I *D sky130_fd_sc_hd__xor2_1
*I *208:X O *D sky130_fd_sc_hd__mux2_1
*CAP
1 *215:B1 3.48274e-05
2 *210:A 0.000135021
3 *208:X 7.94014e-05
4 *42:8 0.00024925
5 *210:A *210:B 8.53529e-05
6 *210:A *43:10 5.80706e-06
7 *210:A *49:10 0
8 *215:B1 *216:B1 7.43578e-06
9 *42:8 *43:10 7.80929e-05
10 *42:8 *49:10 0
11 *215:A1 *210:A 0.000129868
*RES
1 *208:X *42:8 15.7464 
2 *42:8 *210:A 16.9964 
3 *42:8 *215:B1 14.3357 
*END

*D_NET *43 0.00119171
*CONN
*I *215:A2 I *D sky130_fd_sc_hd__a21oi_1
*I *210:B I *D sky130_fd_sc_hd__xor2_1
*I *209:Y O *D sky130_fd_sc_hd__a31oi_2
*CAP
1 *215:A2 0
2 *210:B 0.000188179
3 *209:Y 0.000156294
4 *43:10 0.000344473
5 *195:A *43:10 0
6 *195:B *43:10 3.34672e-05
7 *199:B *210:B 0
8 *208:S *43:10 8.57023e-05
9 *210:A *210:B 8.53529e-05
10 *210:A *43:10 5.80706e-06
11 *215:A1 *210:B 0.000153054
12 *25:24 *43:10 5.52302e-05
13 *31:10 *210:B 0
14 *34:12 *210:B 6.05161e-06
15 *42:8 *43:10 7.80929e-05
*RES
1 *209:Y *43:10 17.4071 
2 *43:10 *210:B 17.7107 
3 *43:10 *215:A2 13.8 
*END

*D_NET *44 0.000672239
*CONN
*I *211:B I *D sky130_fd_sc_hd__xnor2_1
*I *216:A2 I *D sky130_fd_sc_hd__a21o_1
*I *210:X O *D sky130_fd_sc_hd__xor2_1
*CAP
1 *211:B 0.000195169
2 *216:A2 5.40981e-05
3 *210:X 4.57119e-05
4 *44:6 0.000294979
5 *211:B *49:10 2.89016e-05
6 *216:A1 *211:B 5.33786e-05
*RES
1 *210:X *44:6 9.83571 
2 *44:6 *216:A2 10.3357 
3 *44:6 *211:B 21.3 
*END

*D_NET *45 0.000927267
*CONN
*I *214:A_N I *D sky130_fd_sc_hd__and2b_1
*I *219:B1 I *D sky130_fd_sc_hd__a21o_1
*I *212:X O *D sky130_fd_sc_hd__and4_1
*CAP
1 *214:A_N 0.000187259
2 *219:B1 2.565e-05
3 *212:X 1.94333e-05
4 *45:6 0.000232342
5 *214:A_N *214:B 9.61455e-05
6 *214:A_N *219:A1 8.57023e-05
7 *214:A_N *219:A2 5.52302e-05
8 *219:B1 *214:B 0
9 *219:B1 *219:A1 0
10 *45:6 *214:B 8.07313e-05
11 *45:6 *219:A1 0.000144773
*RES
1 *212:X *45:6 10.6571 
2 *45:6 *219:B1 9.72857 
3 *45:6 *214:A_N 13.1214 
*END

*D_NET *46 0.00183115
*CONN
*I *214:B I *D sky130_fd_sc_hd__and2b_1
*I *219:A1 I *D sky130_fd_sc_hd__a21o_1
*I *213:X O *D sky130_fd_sc_hd__a22o_1
*CAP
1 *214:B 0.000209229
2 *219:A1 0.000187049
3 *213:X 0.000115578
4 *46:8 0.000511856
5 *214:B *219:A2 5.52302e-05
6 *46:8 *212:B 9.90431e-05
7 *46:8 *212:C 0.000185643
8 *212:D *214:B 3.57366e-05
9 *212:D *46:8 2.44318e-05
10 *214:A_N *214:B 9.61455e-05
11 *214:A_N *219:A1 8.57023e-05
12 *219:B1 *214:B 0
13 *219:B1 *219:A1 0
14 *45:6 *214:B 8.07313e-05
15 *45:6 *219:A1 0.000144773
*RES
1 *213:X *46:8 12.3179 
2 *46:8 *219:A1 12.3179 
3 *46:8 *214:B 14.4071 
*END

*D_NET *47 0.000409571
*CONN
*I *217:A I *D sky130_fd_sc_hd__xor2_1
*I *214:X O *D sky130_fd_sc_hd__and2b_1
*CAP
1 *217:A 0.000172193
2 *214:X 0.000172193
3 *217:A *219:A2 6.5185e-05
*RES
1 *214:X *217:A 30.6 
*END

*D_NET *48 0.000960945
*CONN
*I *216:B1 I *D sky130_fd_sc_hd__a21o_1
*I *215:Y O *D sky130_fd_sc_hd__a21oi_1
*CAP
1 *216:B1 0.00036289
2 *215:Y 0.00036289
3 *216:B1 *49:10 0.000227729
4 *215:B1 *216:B1 7.43578e-06
*RES
1 *215:Y *216:B1 34.2786 
*END

*D_NET *49 0.00189065
*CONN
*I *219:A2 I *D sky130_fd_sc_hd__a21o_1
*I *217:B I *D sky130_fd_sc_hd__xor2_1
*I *216:X O *D sky130_fd_sc_hd__a21o_1
*CAP
1 *219:A2 0.000149451
2 *217:B 0
3 *216:X 0.000562167
4 *49:10 0.000711617
5 *210:A *49:10 0
6 *211:B *49:10 2.89016e-05
7 *214:A_N *219:A2 5.52302e-05
8 *214:B *219:A2 5.52302e-05
9 *216:A1 *49:10 3.51442e-05
10 *216:B1 *49:10 0.000227729
11 *217:A *219:A2 6.5185e-05
12 *42:8 *49:10 0
*RES
1 *216:X *49:10 24.9964 
2 *49:10 *217:B 13.8 
3 *49:10 *219:A2 16.8893 
*END

*D_NET *50 0.00129403
*CONN
*I *220:A I *D sky130_fd_sc_hd__clkbuf_1
*I *182:X O *D sky130_fd_sc_hd__and2_1
*CAP
1 *220:A 0.000406598
2 *182:X 0.000406598
3 *220:A *182:A 9.90367e-05
4 *220:A *189:A 1.33343e-05
5 *220:A *52:10 0
6 *220:A *52:14 0
7 *220:A *52:16 0.000137983
8 *220:A *52:38 0.000230482
*RES
1 *182:X *220:A 33.475 
*END

*D_NET *51 0.00045975
*CONN
*I *221:A I *D sky130_fd_sc_hd__clkbuf_1
*I *181:X O *D sky130_fd_sc_hd__and2_1
*CAP
1 *221:A 0.000137734
2 *181:X 0.000137734
3 *221:A *230:A 0.000100625
4 *221:A *237:A 5.71472e-05
5 *221:A *64:56 2.65105e-05
*RES
1 *181:X *221:A 21.6179 
*END

*D_NET *52 0.00259338
*CONN
*I *181:B I *D sky130_fd_sc_hd__and2_1
*I *189:A I *D sky130_fd_sc_hd__and4_1
*I *190:A I *D sky130_fd_sc_hd__nand4_2
*I *197:B2 I *D sky130_fd_sc_hd__a22o_1
*I *182:A I *D sky130_fd_sc_hd__and2_1
*I *222:X O *D sky130_fd_sc_hd__buf_1
*CAP
1 *181:B 0
2 *189:A 5.81908e-05
3 *190:A 2.06112e-05
4 *197:B2 9.55151e-05
5 *182:A 0.000131122
6 *222:X 0.000147212
7 *52:38 0.000114625
8 *52:16 0.000275801
9 *52:14 0.000183851
10 *52:10 0.000246075
11 *182:A *66:14 5.52302e-05
12 *182:A *66:22 1.39726e-05
13 *189:A *65:43 7.32955e-05
14 *190:A *190:B 3.99614e-06
15 *190:A *65:43 0
16 *197:B2 *64:18 0.000247778
17 *197:B2 *66:14 0.000121606
18 *52:10 *64:10 3.92854e-05
19 *52:10 *64:12 3.67452e-05
20 *52:14 *64:12 5.80706e-06
21 *52:14 *64:18 7.50601e-05
22 *52:16 *65:32 6.05161e-06
23 *52:16 *66:22 3.2687e-05
24 *52:38 *65:32 4.72917e-05
25 *52:38 *65:43 8.07313e-05
26 *220:A *182:A 9.90367e-05
27 *220:A *189:A 1.33343e-05
28 *220:A *52:10 0
29 *220:A *52:14 0
30 *220:A *52:16 0.000137983
31 *220:A *52:38 0.000230482
*RES
1 *222:X *52:10 16.2821 
2 *52:10 *52:14 6.44643 
3 *52:14 *52:16 1.35714 
4 *52:16 *182:A 11.9071 
5 *52:16 *197:B2 21.4607 
6 *52:14 *52:38 2.17857 
7 *52:38 *190:A 9.72857 
8 *52:38 *189:A 10.6571 
9 *52:10 *181:B 13.8 
*END

*D_NET *53 0.000747167
*CONN
*I *230:A I *D sky130_fd_sc_hd__buf_2
*I *221:X O *D sky130_fd_sc_hd__clkbuf_1
*CAP
1 *230:A 0.000173353
2 *221:X 0.000173353
3 *230:A *237:A 0.000104439
4 *230:A *64:56 0.000195396
5 *221:A *230:A 0.000100625
*RES
1 *221:X *230:A 23.8143 
*END

*D_NET *54 0.000308158
*CONN
*I *231:A I *D sky130_fd_sc_hd__buf_2
*I *187:X O *D sky130_fd_sc_hd__and2_1
*CAP
1 *231:A 0.000154079
2 *187:X 0.000154079
*RES
1 *187:X *231:A 21.1893 
*END

*D_NET *55 0.000441552
*CONN
*I *232:A I *D sky130_fd_sc_hd__buf_2
*I *218:Y O *D sky130_fd_sc_hd__xnor2_1
*CAP
1 *232:A 0.000220776
2 *218:Y 0.000220776
*RES
1 *218:Y *232:A 31.2071 
*END

*D_NET *56 0.000482402
*CONN
*I *233:A I *D sky130_fd_sc_hd__buf_2
*I *205:Y O *D sky130_fd_sc_hd__xnor2_1
*CAP
1 *233:A 0.000241201
2 *205:Y 0.000241201
*RES
1 *205:Y *233:A 22.7429 
*END

*D_NET *57 0.000335761
*CONN
*I *234:A I *D sky130_fd_sc_hd__buf_2
*I *211:Y O *D sky130_fd_sc_hd__xnor2_1
*CAP
1 *234:A 0.000167881
2 *211:Y 0.000167881
*RES
1 *211:Y *234:A 21.5107 
*END

*D_NET *58 0.000450689
*CONN
*I *235:A I *D sky130_fd_sc_hd__buf_2
*I *217:X O *D sky130_fd_sc_hd__xor2_1
*CAP
1 *235:A 0.000225345
2 *217:X 0.000225345
*RES
1 *217:X *235:A 22.4393 
*END

*D_NET *59 0.000218865
*CONN
*I *236:A I *D sky130_fd_sc_hd__buf_2
*I *219:X O *D sky130_fd_sc_hd__a21o_1
*CAP
1 *236:A 0.000109433
2 *219:X 0.000109433
3 *225:A *236:A 0
*RES
1 *219:X *236:A 29.5464 
*END

*D_NET *60 0.00634636
*CONN
*I *194:A1 I *D sky130_fd_sc_hd__a32o_1
*I *192:C I *D sky130_fd_sc_hd__and4bb_1
*I *189:C I *D sky130_fd_sc_hd__and4_1
*I *193:C_N I *D sky130_fd_sc_hd__or4bb_1
*I *197:A2 I *D sky130_fd_sc_hd__a22o_1
*I *190:C I *D sky130_fd_sc_hd__nand4_2
*I *184:S I *D sky130_fd_sc_hd__mux2_1
*I *223:X O *D sky130_fd_sc_hd__clkbuf_2
*CAP
1 *194:A1 0.000174779
2 *192:C 4.43007e-05
3 *189:C 0.000580884
4 *193:C_N 0
5 *197:A2 2.23854e-05
6 *190:C 5.85497e-05
7 *184:S 0.000127459
8 *223:X 7.36132e-05
9 *60:54 0.000625185
10 *60:52 0.00032703
11 *60:41 0.000778573
12 *60:32 0.000713869
13 *60:8 0.000186009
14 *60:6 0.000138775
15 *184:S *182:B 0
16 *184:S *64:18 0.000148911
17 *184:S *65:10 6.70307e-05
18 *184:S *65:19 0.000116481
19 *184:S *65:32 2.31791e-05
20 *189:C *65:58 0.000622254
21 *189:C *66:44 5.8697e-05
22 *189:C *66:57 4.96113e-05
23 *190:C *64:18 0.00019117
24 *190:C *65:32 0.000175526
25 *192:C *66:57 1.98839e-05
26 *194:A1 *194:A2 9.78079e-05
27 *194:A1 *194:B1 2.2816e-05
28 *194:A1 *61:61 7.54868e-05
29 *197:A2 *197:B1 0
30 *60:6 *197:B1 7.91158e-05
31 *60:41 *188:B 5.33005e-05
32 *60:52 *193:D_N 9.32706e-05
33 *60:52 *61:61 0.000238782
34 *192:B_N *189:C 5.49544e-05
35 *193:B *60:41 5.20751e-05
36 *193:B *60:52 7.19623e-05
37 *23:6 *60:41 7.49251e-05
38 *23:6 *60:52 7.09928e-05
39 *32:12 *60:41 3.67142e-05
*RES
1 *223:X *60:6 10.6571 
2 *60:6 *60:8 4.5 
3 *60:8 *184:S 17.3179 
4 *60:8 *190:C 16.3536 
5 *60:6 *60:32 0.946429 
6 *60:32 *197:A2 9.72857 
7 *60:32 *60:41 11.2143 
8 *60:41 *193:C_N 9.3 
9 *60:41 *60:52 9.01786 
10 *60:52 *60:54 4.5 
11 *60:54 *189:C 17.6393 
12 *60:54 *192:C 9.83571 
13 *60:52 *194:A1 16.6214 
*END

*D_NET *61 0.00831171
*CONN
*I *188:B I *D sky130_fd_sc_hd__nand2_1