*SPEF "ieee 1481-1999"
*DESIGN "SarsaNStepsRuido_e9"
*DATE "11:39:14 Friday September 12, 2025"
*VENDOR "The OpenROAD Project"
*PROGRAM "OpenROAD"
*VERSION "edf00dff99f6c40d67a30c0e22a8191c5d2ed9d6"
*DESIGN_FLOW "NAME_SCOPE LOCAL" "PIN_CAP NONE"
*DIVIDER /
*DELIMITER :
*BUS_DELIMITER []
*T_UNIT 1 NS
*C_UNIT 1 PF
*R_UNIT 1 OHM
*L_UNIT 1 HENRY

*NAME_MAP
*1 A[0]
*2 A[1]
*3 B[0]
*4 B[1]
*5 net8
*6 P[1]
*7 P[2]
*8 P[3]
*11 _0_
*12 _1_
*13 _2_
*14 net1
*15 net2
*16 net3
*17 net4
*18 net5
*19 net6
*20 net7
*21 FILLER_0_15
*22 FILLER_0_27
*23 FILLER_0_29
*24 FILLER_0_3
*25 FILLER_0_41
*26 FILLER_0_53
*27 FILLER_0_57
*28 FILLER_0_69
*29 FILLER_1_15
*30 FILLER_1_27
*31 FILLER_1_3
*32 FILLER_1_39
*33 FILLER_1_51
*34 FILLER_1_55
*35 FILLER_1_57
*36 FILLER_1_69
*37 FILLER_2_15
*38 FILLER_2_27
*39 FILLER_2_29
*40 FILLER_2_3
*41 FILLER_2_41
*42 FILLER_2_53
*43 FILLER_2_65
*44 FILLER_2_77
*45 FILLER_3_15
*46 FILLER_3_27
*47 FILLER_3_3
*48 FILLER_3_39
*49 FILLER_3_51
*50 FILLER_3_55
*51 FILLER_3_57
*52 FILLER_3_69
*53 FILLER_4_15
*54 FILLER_4_27
*55 FILLER_4_29
*56 FILLER_4_3
*57 FILLER_4_41
*58 FILLER_4_53
*59 FILLER_4_65
*60 FILLER_4_77
*61 FILLER_5_18
*62 FILLER_5_30
*63 FILLER_5_42
*64 FILLER_5_54
*65 FILLER_5_57
*66 FILLER_5_6
*67 FILLER_5_69
*68 FILLER_6_18
*69 FILLER_6_26
*70 FILLER_6_37
*71 FILLER_6_49
*72 FILLER_6_6
*73 FILLER_6_61
*74 FILLER_6_73
*75 FILLER_7_21
*76 FILLER_7_25
*77 FILLER_7_3
*78 FILLER_7_33
*79 FILLER_7_45
*80 FILLER_7_53
*81 FILLER_7_57
*82 FILLER_7_69
*83 FILLER_8_15
*84 FILLER_8_27
*85 FILLER_8_29
*86 FILLER_8_3
*87 FILLER_8_35
*88 FILLER_8_39
*89 FILLER_8_44
*90 FILLER_8_56
*91 FILLER_8_68
*92 FILLER_8_80
*93 FILLER_9_15
*94 FILLER_9_27
*95 FILLER_9_29
*96 FILLER_9_3
*97 FILLER_9_34
*98 FILLER_9_41
*99 FILLER_9_49
*100 FILLER_9_57
*101 FILLER_9_69
*102 PHY_EDGE_ROW_0_Left_10
*103 PHY_EDGE_ROW_0_Right_0
*104 PHY_EDGE_ROW_1_Left_11
*105 PHY_EDGE_ROW_1_Right_1
*106 PHY_EDGE_ROW_2_Left_12
*107 PHY_EDGE_ROW_2_Right_2
*108 PHY_EDGE_ROW_3_Left_13
*109 PHY_EDGE_ROW_3_Right_3
*110 PHY_EDGE_ROW_4_Left_14
*111 PHY_EDGE_ROW_4_Right_4
*112 PHY_EDGE_ROW_5_Left_15
*113 PHY_EDGE_ROW_5_Right_5
*114 PHY_EDGE_ROW_6_Left_16
*115 PHY_EDGE_ROW_6_Right_6
*116 PHY_EDGE_ROW_7_Left_17
*117 PHY_EDGE_ROW_7_Right_7
*118 PHY_EDGE_ROW_8_Left_18
*119 PHY_EDGE_ROW_8_Right_8
*120 PHY_EDGE_ROW_9_Left_19
*121 PHY_EDGE_ROW_9_Right_9
*122 SarsaNStepsRuido_e9_8
*123 TAP_TAPCELL_ROW_0_20
*124 TAP_TAPCELL_ROW_0_21
*125 TAP_TAPCELL_ROW_1_22
*126 TAP_TAPCELL_ROW_2_23
*127 TAP_TAPCELL_ROW_3_24
*128 TAP_TAPCELL_ROW_4_25
*129 TAP_TAPCELL_ROW_5_26
*130 TAP_TAPCELL_ROW_6_27
*131 TAP_TAPCELL_ROW_7_28
*132 TAP_TAPCELL_ROW_8_29
*133 TAP_TAPCELL_ROW_9_30
*134 TAP_TAPCELL_ROW_9_31
*135 _3_
*136 _4_
*137 _5_
*138 _6_
*139 _7_
*140 _8_
*141 input1
*142 input2
*143 input3
*144 input4
*145 output5
*146 output6
*147 output7

*PORTS
A[0] I
A[1] I
B[0] I
B[1] I
P[0] O
P[1] O
P[2] O
P[3] O

*D_NET *1 0.000564664
*CONN
*P A[0] I
*I *141:A I *D sky130_fd_sc_hd__buf_1
*CAP
1 A[0] 0.000268376
2 *141:A 0.000268376
3 *141:A *3:17 2.79122e-05
4 *141:A *16:10 0
5 *141:A *16:25 0
*RES
1 A[0] *141:A 47.7832 
*END

*D_NET *2 0.000980411
*CONN
*P A[1] I
*I *142:A I *D sky130_fd_sc_hd__buf_1
*CAP
1 A[1] 0.000490205
2 *142:A 0.000490205
3 *142:A *144:A 0
*RES
1 A[1] *142:A 48.73 
*END

*D_NET *3 0.000721673
*CONN
*P B[0] I
*I *143:A I *D sky130_fd_sc_hd__buf_1
*CAP
1 B[0] 0.00034688
2 *143:A 0
3 *3:17 0.00034688
4 *141:A *3:17 2.79122e-05
*RES
1 B[0] *3:17 27.8627 
2 *3:17 *143:A 23 
*END

*D_NET *4 0.00106499
*CONN
*P B[1] I
*I *144:A I *D sky130_fd_sc_hd__buf_1
*CAP
1 B[1] 0.000532493
2 *144:A 0.000532493
3 *144:A P[2] 0
4 *142:A *144:A 0
*RES
1 B[1] *144:A 49.6829 
*END

*D_NET *5 0.000433451
*CONN
*P P[0] O
*I *122:LO O *D sky130_fd_sc_hd__conb_1
*CAP
1 P[0] 0.000216725
2 *122:LO 0.000216725
3 P[0] P[1] 0
*RES
1 *122:LO P[0] 47.0789 
*END

*D_NET *6 0.000606195
*CONN
*P P[1] O
*I *145:X O *D sky130_fd_sc_hd__buf_2
*CAP
1 P[1] 0.000303097
2 *145:X 0.000303097
3 P[0] P[1] 0
*RES
1 *145:X P[1] 47.8691 
*END

*D_NET *7 0.00100297
*CONN
*P P[2] O
*I *146:X O *D sky130_fd_sc_hd__buf_2
*CAP
1 P[2] 0.000501485
2 *146:X 0.000501485
3 P[2] P[3] 0
4 *144:A P[2] 0
*RES
1 *146:X P[2] 48.9786 
*END

*D_NET *8 0.00100219
*CONN
*P P[3] O
*I *147:X O *D sky130_fd_sc_hd__buf_2
*CAP
1 P[3] 0.000501094
2 *147:X 0.000501094
3 P[2] P[3] 0
*RES
1 *147:X P[3] 48.9786 
*END

*D_NET *11 0.00031777
*CONN
*I *140:A2 I *D sky130_fd_sc_hd__a21oi_1
*I *139:Y O *D sky130_fd_sc_hd__nand2_1
*CAP
1 *140:A2 7.06839e-05
2 *139:Y 7.06839e-05
3 *140:A2 *140:A1 0.0001423
4 *140:A2 *15:16 3.41017e-05
*RES
1 *139:Y *140:A2 48.0714 
*END

*D_NET *12 0.00248811
*CONN
*I *140:A1 I *D sky130_fd_sc_hd__a21oi_1
*I *137:B1 I *D sky130_fd_sc_hd__o211a_1
*I *135:Y O *D sky130_fd_sc_hd__nand3_1
*CAP
1 *140:A1 0.000557262
2 *137:B1 0.000160912
3 *135:Y 0.000224661
4 *12:8 0.000942836
5 *137:B1 *137:A2 0
6 *140:A1 *137:A2 0
7 *140:A1 *15:16 9.03964e-06
8 *140:A1 *15:24 0
9 *12:8 *15:24 4.6595e-05
10 *12:8 *15:28 0.000404502
11 *140:A2 *140:A1 0.0001423
*RES
1 *135:Y *12:8 43.3857 
2 *12:8 *137:B1 40.61 
3 *12:8 *140:A1 45.5193 
*END

*D_NET *13 0.00124574
*CONN
*I *137:C1 I *D sky130_fd_sc_hd__o211a_1
*I *136:X O *D sky130_fd_sc_hd__a21o_1
*CAP
1 *137:C1 0.000199975
2 *136:X 0.000113262
3 *13:8 0.000313237
4 *137:C1 *137:A1 0.0005784
5 *13:8 *14:10 4.08641e-05
6 *13:8 *16:25 0
*RES
1 *136:X *13:8 40.2579 
2 *13:8 *137:C1 44.3386 
*END

*D_NET *14 0.00228183
*CONN
*I *138:A I *D sky130_fd_sc_hd__and4_1
*I *135:A I *D sky130_fd_sc_hd__nand3_1
*I *136:B1 I *D sky130_fd_sc_hd__a21o_1
*I *141:X O *D sky130_fd_sc_hd__buf_1
*CAP
1 *138:A 3.18174e-05
2 *135:A 0
3 *136:B1 0
4 *141:X 0.000434679
5 *14:29 0.000105317
6 *14:12 7.34999e-05
7 *14:10 0.000434679
8 *138:A *138:B 0.000274078
9 *138:A *15:28 0.000260847
10 *14:10 *137:A1 2.7237e-05
11 *14:10 *16:25 8.16356e-05
12 *14:29 *135:C 1.94949e-05
13 *14:29 *136:A2 7.88926e-05
14 *14:29 *138:B 5.67058e-05
15 *14:29 *15:28 0.000127168
16 *14:29 *16:36 0.000234919
17 *13:8 *14:10 4.08641e-05
*RES
1 *141:X *14:10 44.6907 
2 *14:10 *14:12 15 
3 *14:12 *136:B1 23 
4 *14:12 *14:29 4.53643 
5 *14:29 *135:A 23 
6 *14:29 *138:A 26.0036 
*END

*D_NET *15 0.00357283
*CONN
*I *139:A I *D sky130_fd_sc_hd__nand2_1
*I *138:C I *D sky130_fd_sc_hd__and4_1
*I *135:C I *D sky130_fd_sc_hd__nand3_1
*I *136:A2 I *D sky130_fd_sc_hd__a21o_1
*I *142:X O *D sky130_fd_sc_hd__buf_1
*CAP
1 *139:A 0
2 *138:C 0
3 *135:C 1.00348e-05
4 *136:A2 0.000177997
5 *142:X 0.000285178
6 *15:28 0.000313996
7 *15:24 0.000424852
8 *15:16 0.000436276
9 *15:10 0.000422566
10 *136:A2 *16:36 4.12802e-05
11 *15:10 *17:8 0.000114092
12 *15:10 *19:10 0
13 *15:24 *137:A2 2.50756e-05
14 *15:24 *138:D 4.50289e-05
15 *15:24 *17:10 5.73765e-05
16 *15:24 *20:10 0.000188927
17 *15:28 *138:B 4.95081e-05
18 *138:A *15:28 0.000260847
19 *140:A1 *15:16 9.03964e-06
20 *140:A1 *15:24 0
21 *140:A2 *15:16 3.41017e-05
22 *12:8 *15:24 4.6595e-05
23 *12:8 *15:28 0.000404502
24 *14:29 *135:C 1.94949e-05
25 *14:29 *136:A2 7.88926e-05
26 *14:29 *15:28 0.000127168
*RES
1 *142:X *15:10 42.9093 
2 *15:10 *15:16 17.4236 
3 *15:16 *15:24 36.09 
4 *15:24 *15:28 6.35929 
5 *15:28 *136:A2 26.5007 
6 *15:28 *135:C 23.4971 
7 *15:24 *138:C 23 
8 *15:16 *139:A 23 
*END

*D_NET *16 0.00432579
*CONN
*I *138:B I *D sky130_fd_sc_hd__and4_1
*I *135:B I *D sky130_fd_sc_hd__nand3_1
*I *136:A1 I *D sky130_fd_sc_hd__a21o_1
*I *137:A1 I *D sky130_fd_sc_hd__o211a_1
*I *143:X O *D sky130_fd_sc_hd__buf_1
*CAP
1 *138:B 0.000174074
2 *135:B 0
3 *136:A1 0
4 *137:A1 0.000480882
5 *143:X 0.00036541
6 *16:36 0.000427693
7 *16:25 0.000448928
8 *16:10 0.0010416
9 *137:A1 *137:A2 4.344e-05
10 *136:A2 *16:36 4.12802e-05
11 *137:C1 *137:A1 0.0005784
12 *138:A *138:B 0.000274078
13 *141:A *16:10 0
14 *141:A *16:25 0
15 *13:8 *16:25 0
16 *14:10 *137:A1 2.7237e-05
17 *14:10 *16:25 8.16356e-05
18 *14:29 *138:B 5.67058e-05
19 *14:29 *16:36 0.000234919
20 *15:28 *138:B 4.95081e-05
*RES
1 *143:X *16:10 43.0336 
2 *16:10 *137:A1 48.6471 
3 *16:10 *16:25 18.6664 
4 *16:25 *136:A1 23 
5 *16:25 *16:36 4.82643 
6 *16:36 *135:B 23 
7 *16:36 *138:B 27.4329 
*END

*D_NET *17 0.00230022
*CONN
*I *139:B I *D sky130_fd_sc_hd__nand2_1
*I *138:D I *D sky130_fd_sc_hd__and4_1
*I *137:A2 I *D sky130_fd_sc_hd__o211a_1
*I *144:X O *D sky130_fd_sc_hd__buf_1
*CAP
1 *139:B 0
2 *138:D 0.00026526
3 *137:A2 0.000370077
4 *144:X 0.000105994
5 *17:10 0.000745596
6 *17:8 0.000216253
7 *137:A2 *18:6 3.77997e-05
8 *138:D *20:10 0.000274229
9 *137:A1 *137:A2 4.344e-05
10 *137:B1 *137:A2 0
11 *140:A1 *137:A2 0
12 *15:10 *17:8 0.000114092
13 *15:24 *137:A2 2.50756e-05
14 *15:24 *138:D 4.50289e-05
15 *15:24 *17:10 5.73765e-05
*RES
1 *144:X *17:8 40.2579 
2 *17:8 *17:10 1.90571 
3 *17:10 *137:A2 45.1671 
4 *17:10 *138:D 41.9564 
5 *17:8 *139:B 38 
*END

*D_NET *18 0.00324867
*CONN
*I *145:A I *D sky130_fd_sc_hd__buf_2
*I *137:X O *D sky130_fd_sc_hd__o211a_1
*CAP
1 *145:A 0
2 *137:X 0.0014946
3 *18:12 0.000110834
4 *18:6 0.00160543
5 *137:A2 *18:6 3.77997e-05
*RES
1 *137:X *18:6 42.6786 
2 *18:6 *18:12 31.9057 
3 *18:12 *145:A 23 
*END

*D_NET *19 0.00043868
*CONN
*I *146:A I *D sky130_fd_sc_hd__buf_2
*I *140:Y O *D sky130_fd_sc_hd__a21oi_1
*CAP
1 *146:A 0
2 *140:Y 0.000201012
3 *19:10 0.000201012
4 *19:10 *140:B1 3.66555e-05
5 *15:10 *19:10 0
*RES
1 *140:Y *19:10 41.3557 
2 *19:10 *146:A 38 
*END

*D_NET *20 0.00257242
*CONN
*I *147:A I *D sky130_fd_sc_hd__buf_2
*I *140:B1 I *D sky130_fd_sc_hd__a21oi_1
*I *138:X O *D sky130_fd_sc_hd__and4_1
*CAP
1 *147:A 0.000176833
2 *140:B1 0.00024369
3 *138:X 0.000615783
4 *20:10 0.00103631
5 *138:D *20:10 0.000274229
6 *15:24 *20:10 0.000188927
7 *19:10 *140:B1 3.66555e-05
*RES
1 *138:X *20:10 49.9314 
2 *20:10 *140:B1 42.4329 
3 *20:10 *147:A 41.3143 
*END
