*SPEF "ieee 1481-1999"
*DESIGN "mult4_SarsaNStepsRuido_e9_SARSA_RUIDO_e9_SarsaNStepsRuido_e9_SARSA_RUIDO_e9"
*DATE "11:59:20 Wednesday September 17, 2025"
*VENDOR "The OpenROAD Project"
*PROGRAM "OpenROAD"
*VERSION "edf00dff99f6c40d67a30c0e22a8191c5d2ed9d6"
*DESIGN_FLOW "NAME_SCOPE LOCAL" "PIN_CAP NONE"
*DIVIDER /
*DELIMITER :
*BUS_DELIMITER []
*T_UNIT 1 NS
*C_UNIT 1 PF
*R_UNIT 1 OHM
*L_UNIT 1 HENRY

*NAME_MAP
*1 A[0]
*2 A[1]
*3 A[2]
*4 A[3]
*5 B[0]
*6 B[1]
*7 B[2]
*8 B[3]
*9 net16
*10 P[1]
*11 P[2]
*12 P[3]
*13 P[4]
*14 P[5]
*15 P[6]
*16 P[7]
*19 _000_
*20 _001_
*21 _002_
*22 _003_
*23 _004_
*24 _005_
*25 _006_
*26 _007_
*27 _008_
*28 _009_
*29 _010_
*30 _011_
*31 _012_
*32 _013_
*33 _014_
*34 _015_
*35 _016_
*36 _017_
*37 _018_
*38 _019_
*39 _020_
*40 _021_
*41 _022_
*42 _023_
*43 _024_
*44 _025_
*45 _026_
*46 _027_
*47 _028_
*48 _029_
*49 _030_
*50 _031_
*51 _032_
*52 _033_
*53 _034_
*54 _035_
*55 _036_
*56 _037_
*57 _038_
*58 _039_
*59 _040_
*60 _041_
*61 _042_
*62 _043_
*63 _044_
*64 _045_
*65 _046_
*66 _047_
*67 _048_
*68 _049_
*69 _050_
*70 _051_
*71 _052_
*72 net1
*73 net10
*74 net11
*75 net12
*76 net13
*77 net14
*78 net15
*79 net2
*80 net3
*81 net4
*82 net5
*83 net6
*84 net7
*85 net8
*86 net9
*87 FILLER_0_18
*88 FILLER_0_26
*89 FILLER_0_34
*90 FILLER_0_41
*91 FILLER_0_49
*92 FILLER_0_55
*93 FILLER_0_57
*94 FILLER_0_6
*95 FILLER_0_69
*96 FILLER_1_24
*97 FILLER_1_54
*98 FILLER_1_57
*99 FILLER_1_72
*100 FILLER_1_76
*101 FILLER_2_19
*102 FILLER_2_27
*103 FILLER_2_29
*104 FILLER_2_37
*105 FILLER_2_45
*106 FILLER_2_57
*107 FILLER_2_63
*108 FILLER_2_72
*109 FILLER_2_80
*110 FILLER_3_10
*111 FILLER_3_27
*112 FILLER_3_46
*113 FILLER_3_54
*114 FILLER_3_57
*115 FILLER_3_77
*116 FILLER_4_13
*117 FILLER_4_17
*118 FILLER_4_25
*119 FILLER_4_29
*120 FILLER_4_33
*121 FILLER_4_39
*122 FILLER_4_48
*123 FILLER_4_59
*124 FILLER_4_74
*125 FILLER_4_80
*126 FILLER_5_13
*127 FILLER_5_29
*128 FILLER_5_38
*129 FILLER_5_46
*130 FILLER_5_57
*131 FILLER_5_69
*132 FILLER_5_77
*133 FILLER_6_23
*134 FILLER_6_3
*135 FILLER_6_36
*136 FILLER_6_50
*137 FILLER_6_73
*138 FILLER_7_25
*139 FILLER_7_35
*140 FILLER_7_40
*141 FILLER_7_52
*142 FILLER_7_57
*143 FILLER_7_69
*144 FILLER_7_7
*145 FILLER_8_11
*146 FILLER_8_15
*147 FILLER_8_27
*148 FILLER_8_54
*149 FILLER_8_62
*150 FILLER_8_72
*151 FILLER_8_80
*152 FILLER_9_14
*153 FILLER_9_26
*154 FILLER_9_29
*155 FILLER_9_41
*156 FILLER_9_57
*157 FILLER_9_69
*158 FILLER_9_73
*159 PHY_EDGE_ROW_0_Left_10
*160 PHY_EDGE_ROW_0_Right_0
*161 PHY_EDGE_ROW_1_Left_11
*162 PHY_EDGE_ROW_1_Right_1
*163 PHY_EDGE_ROW_2_Left_12
*164 PHY_EDGE_ROW_2_Right_2
*165 PHY_EDGE_ROW_3_Left_13
*166 PHY_EDGE_ROW_3_Right_3
*167 PHY_EDGE_ROW_4_Left_14
*168 PHY_EDGE_ROW_4_Right_4
*169 PHY_EDGE_ROW_5_Left_15
*170 PHY_EDGE_ROW_5_Right_5
*171 PHY_EDGE_ROW_6_Left_16
*172 PHY_EDGE_ROW_6_Right_6
*173 PHY_EDGE_ROW_7_Left_17
*174 PHY_EDGE_ROW_7_Right_7
*175 PHY_EDGE_ROW_8_Left_18
*176 PHY_EDGE_ROW_8_Right_8
*177 PHY_EDGE_ROW_9_Left_19
*178 PHY_EDGE_ROW_9_Right_9
*179 TAP_TAPCELL_ROW_0_20
*180 TAP_TAPCELL_ROW_0_21
*181 TAP_TAPCELL_ROW_1_22
*182 TAP_TAPCELL_ROW_2_23
*183 TAP_TAPCELL_ROW_3_24
*184 TAP_TAPCELL_ROW_4_25
*185 TAP_TAPCELL_ROW_5_26
*186 TAP_TAPCELL_ROW_6_27
*187 TAP_TAPCELL_ROW_7_28
*188 TAP_TAPCELL_ROW_8_29
*189 TAP_TAPCELL_ROW_9_30
*190 TAP_TAPCELL_ROW_9_31
*191 _053_
*192 _054_
*193 _055_
*194 _056_
*195 _057_
*196 _058_
*197 _059_
*198 _060_
*199 _061_
*200 _062_
*201 _063_
*202 _064_
*203 _065_
*204 _066_
*205 _067_
*206 _068_
*207 _069_
*208 _070_
*209 _071_
*210 _072_
*211 _073_
*212 _074_
*213 _075_
*214 _076_
*215 _077_
*216 _078_
*217 _079_
*218 _080_
*219 _081_
*220 _082_
*221 _083_
*222 _084_
*223 _085_
*224 _086_
*225 _087_
*226 _088_
*227 _089_
*228 _090_
*229 _091_
*230 _092_
*231 _093_
*232 _094_
*233 _095_
*234 _096_
*235 _097_
*236 _098_
*237 _099_
*238 _100_
*239 _101_
*240 _102_
*241 _103_
*242 _104_
*243 _105_
*244 _106_
*245 _107_
*246 _108_
*247 _109_
*248 _110_
*249 _111_
*250 _112_
*251 input1
*252 input2
*253 input3
*254 input4
*255 input5
*256 input6
*257 input7
*258 input8
*259 mult4_SarsaNStepsRuido_e9_SARSA_RUIDO_e9_SarsaNStepsRuido_e9_SARSA_RUIDO_e9_16
*260 output10
*261 output11
*262 output12
*263 output13
*264 output14
*265 output15
*266 output9

*PORTS
A[0] I
A[1] I
A[2] I
A[3] I
B[0] I
B[1] I
B[2] I
B[3] I
P[0] O
P[1] O
P[2] O
P[3] O
P[4] O
P[5] O
P[6] O
P[7] O

*D_NET *1 0.00068614
*CONN
*P A[0] I
*I *251:A I *D sky130_fd_sc_hd__dlymetal6s2s_1
*CAP
1 A[0] 0.000314669
2 *251:A 0
3 *1:17 0.000314669
4 *1:17 P[1] 2.79122e-05
5 *1:17 *4:17 2.88889e-05
*RES
1 A[0] *1:17 27.5105 
2 *1:17 *251:A 23 
*END

*D_NET *2 0.000675248
*CONN
*P A[1] I
*I *252:A I *D sky130_fd_sc_hd__clkbuf_2
*CAP
1 A[1] 0.000323899
2 *252:A 0
3 *2:17 0.000323899
4 *2:17 *5:17 2.74495e-05
*RES
1 A[1] *2:17 27.2827 
2 *2:17 *252:A 23 
*END

*D_NET *3 0.00094531
*CONN
*P A[2] I
*I *253:A I *D sky130_fd_sc_hd__buf_1
*CAP
1 A[2] 0.000440145
2 *253:A 0.000440145
3 *253:A P[7] 0
4 *253:A *230:A2 0
5 *253:A *230:A3 1.00084e-05
6 *253:A *230:B1 5.50106e-05
*RES
1 A[2] *253:A 47.3214 
*END

*D_NET *4 0.000747356
*CONN
*P A[3] I
*I *254:A I *D sky130_fd_sc_hd__dlymetal6s2s_1
*CAP
1 A[3] 0.000346167
2 *254:A 0
3 *4:17 0.000346167
4 *4:17 *258:A 2.61329e-05
5 *1:17 *4:17 2.88889e-05
*RES
1 A[3] *4:17 28.2148 
2 *4:17 *254:A 23 
*END

*D_NET *5 0.000694242
*CONN
*P B[0] I
*I *255:A I *D sky130_fd_sc_hd__clkbuf_2
*CAP
1 B[0] 0.000309487
2 *255:A 0
3 *5:17 0.000309487
4 *5:17 *6:17 4.78192e-05
5 *2:17 *5:17 2.74495e-05
*RES
1 B[0] *5:17 27.2827 
2 *5:17 *255:A 23 
*END

*D_NET *6 0.000681815
*CONN
*P B[1] I
*I *256:A I *D sky130_fd_sc_hd__clkbuf_2
*CAP
1 B[1] 0.000306375
2 *256:A 0
3 *6:17 0.000306375
4 *6:17 P[1] 2.12457e-05
5 *5:17 *6:17 4.78192e-05
*RES
1 B[1] *6:17 27.2827 
2 *6:17 *256:A 23 
*END

*D_NET *7 0.000875944
*CONN
*P B[2] I
*I *257:A I *D sky130_fd_sc_hd__buf_1
*CAP
1 B[2] 0.000424906
2 *257:A 0
3 *7:17 0.000424906
4 *7:17 *258:A 2.61329e-05
5 *7:17 *84:10 0
*RES
1 B[2] *7:17 29.2712 
2 *7:17 *257:A 23 
*END

*D_NET *8 0.000631171
*CONN
*P B[3] I
*I *258:A I *D sky130_fd_sc_hd__dlymetal6s2s_1
*CAP
1 B[3] 0.000289453
2 *258:A 0.000289453
3 *4:17 *258:A 2.61329e-05
4 *7:17 *258:A 2.61329e-05
*RES
1 B[3] *258:A 49.8062 
*END

*D_NET *9 0.000728341
*CONN
*P P[0] O
*I *259:LO O *D sky130_fd_sc_hd__conb_1
*CAP
1 P[0] 0.00031476
2 *259:LO 0.00031476
3 P[0] P[4] 8.73764e-05
4 P[0] *75:10 1.14452e-05
*RES
1 *259:LO P[0] 48.1267 
*END

*D_NET *10 0.00191938
*CONN
*P P[1] O
*I *266:X O *D sky130_fd_sc_hd__buf_2
*CAP
1 P[1] 0.000380999
2 *266:X 0.000233063
3 *10:8 0.000614062
4 *10:8 *26:17 8.62876e-05
5 *10:8 *45:8 0.000176408
6 *10:8 *82:10 0.000379403
7 *1:17 P[1] 2.79122e-05
8 *6:17 P[1] 2.12457e-05
*RES
1 *266:X *10:8 43.9554 
2 *10:8 P[1] 9.27307 
*END

*D_NET *11 0.00100219
*CONN
*P P[2] O
*I *260:X O *D sky130_fd_sc_hd__buf_2
*CAP
1 P[2] 0.000501094
2 *260:X 0.000501094
3 P[2] P[3] 0
*RES
1 *260:X P[2] 48.9786 
*END

*D_NET *12 0.00100219
*CONN
*P P[3] O
*I *261:X O *D sky130_fd_sc_hd__buf_2
*CAP
1 P[3] 0.000501094
2 *261:X 0.000501094
3 P[2] P[3] 0
*RES
1 *261:X P[3] 48.9786 
*END

*D_NET *13 0.000697399
*CONN
*P P[4] O
*I *262:X O *D sky130_fd_sc_hd__buf_2
*CAP
1 P[4] 0.000240891
2 *262:X 0.000240891
3 P[4] P[5] 8.73764e-05
4 P[4] *75:10 4.08641e-05
5 P[0] P[4] 8.73764e-05
*RES
1 *262:X P[4] 48.5734 
*END

*D_NET *14 0.000505761
*CONN
*P P[5] O
*I *263:X O *D sky130_fd_sc_hd__buf_2
*CAP
1 P[5] 0.000202465
2 *263:X 0.000202465
3 P[5] *76:10 1.34542e-05
4 P[4] P[5] 8.73764e-05
*RES
1 *263:X P[5] 47.1648 
*END

*D_NET *15 0.000527382
*CONN
*P P[6] O
*I *264:X O *D sky130_fd_sc_hd__buf_2
*CAP
1 P[6] 0.000263691
2 *264:X 0.000263691
*RES
1 *264:X P[6] 47.1648 
*END

*D_NET *16 0.000914954
*CONN
*P P[7] O
*I *265:X O *D sky130_fd_sc_hd__buf_2
*CAP
1 P[7] 0.000457477
2 *265:X 0.000457477
3 *253:A P[7] 0
*RES
1 *265:X P[7] 47.3836 
*END

*D_NET *19 0.000422436
*CONN
*I *219:A1 I *D sky130_fd_sc_hd__a211o_1
*I *191:Y O *D sky130_fd_sc_hd__inv_2
*CAP
1 *219:A1 0
2 *191:Y 0.0001295
3 *19:10 0.0001295
4 *19:10 *42:8 1.14452e-05
5 *19:10 *45:8 3.71198e-05
6 *19:10 *72:14 3.3746e-05
7 *19:10 *79:35 6.16439e-05
8 *19:10 *81:8 1.94812e-05
*RES
1 *191:Y *19:10 40.5271 
2 *19:10 *219:A1 38 
*END

*D_NET *20 0.000604258
*CONN
*I *222:A1 I *D sky130_fd_sc_hd__a211o_1
*I *192:Y O *D sky130_fd_sc_hd__inv_2
*CAP
1 *222:A1 8.61516e-05
2 *192:Y 8.61516e-05
3 *222:A1 *192:A 0
4 *222:A1 *222:B1 5.47983e-06
5 *222:A1 *222:C1 7.28142e-06
6 *222:A1 *50:12 0.000272101
7 *222:A1 *82:47 0.000147093
*RES
1 *192:Y *222:A1 49.5007 
*END

*D_NET *21 0.000392854
*CONN
*I *212:A I *D sky130_fd_sc_hd__or4b_1
*I *193:Y O *D sky130_fd_sc_hd__inv_2
*CAP
1 *212:A 8.36133e-05
2 *193:Y 8.36133e-05
3 *212:A *212:C 6.82356e-05
4 *212:A *38:8 0.000101764
5 *212:A *85:61 5.56279e-05
*RES
1 *193:Y *212:A 48.5479 
*END

*D_NET *22 0.00239049
*CONN
*I *222:A2 I *D sky130_fd_sc_hd__a211o_1
*I *199:A I *D sky130_fd_sc_hd__or2_1
*I *194:Y O *D sky130_fd_sc_hd__inv_2
*CAP
1 *222:A2 0
2 *199:A 0
3 *194:Y 0
4 *22:25 0.000212943
5 *22:12 0.000537846
6 *22:4 0.000750789
7 *22:12 *209:B 0.000184527
8 *22:12 *24:25 0.000185755
9 *22:12 *79:12 2.35393e-05
10 *22:12 *79:14 6.33511e-05
11 *22:12 *79:89 7.52589e-05
12 *22:12 *83:27 0
13 *22:25 *209:B 0.000171296
14 *22:25 *221:A2 0.000135557
15 *22:25 *34:23 0
16 *22:25 *82:47 4.96264e-05
*RES
1 *194:Y *22:4 23 
2 *22:4 *22:12 39.0314 
3 *22:12 *199:A 23 
4 *22:4 *22:25 33.9564 
5 *22:25 *222:A2 23 
*END

*D_NET *23 0.00179937
*CONN
*I *212:B I *D sky130_fd_sc_hd__or4b_1
*I *232:A1 I *D sky130_fd_sc_hd__a211o_1
*I *230:A2 I *D sky130_fd_sc_hd__a31oi_1
*I *195:Y O *D sky130_fd_sc_hd__inv_2
*CAP
1 *212:B 8.90681e-05
2 *232:A1 0
3 *230:A2 0.000325272
4 *195:Y 0
5 *23:10 0.000645836
6 *23:4 0.000409632
7 *212:B *85:36 4.9486e-05
8 *212:B *85:40 5.79538e-05
9 *230:A2 *230:A3 0
10 *230:A2 *230:B1 7.88512e-05
11 *230:A2 *55:10 8.16356e-05
12 *230:A2 *84:66 9.20311e-06
13 *23:10 *35:8 0
14 *23:10 *55:10 6.07611e-06
15 *23:10 *80:33 0
16 *23:10 *81:35 0
17 *23:10 *84:66 1.69668e-05
18 *23:10 *85:36 2.93845e-05
19 *23:10 *85:61 0
20 *253:A *230:A2 0
*RES
1 *195:Y *23:4 23 
2 *23:4 *23:10 20.3443 
3 *23:10 *230:A2 43.5929 
4 *23:10 *232:A1 38 
5 *23:4 *212:B 24.5743 
*END

*D_NET *24 0.00211722
*CONN
*I *199:B I *D sky130_fd_sc_hd__or2_1
*I *201:A1 I *D sky130_fd_sc_hd__a21bo_1
*I *198:B1 I *D sky130_fd_sc_hd__o211a_1
*I *196:Y O *D sky130_fd_sc_hd__nand3_1
*CAP
1 *199:B 5.633e-05
2 *201:A1 6.3804e-05
3 *198:B1 0.00022997
4 *196:Y 4.01712e-05
5 *24:25 0.000211068
6 *24:6 0.000361075
7 *198:B1 *196:A 2.02872e-05
8 *198:B1 *197:A2 4.56504e-05
9 *198:B1 *197:B1 2.93747e-05
10 *198:B1 *198:C1 5.67058e-05
11 *198:B1 *82:16 5.98028e-05
12 *198:B1 *83:16 3.91386e-05
13 *199:B *27:6 6.82514e-05
14 *199:B *79:83 0.000143655
15 *201:A1 *26:6 0.000103637
16 *201:A1 *27:6 0.00018282
17 *201:A1 *83:25 1.76557e-05
18 *24:6 *196:A 1.40958e-05
19 *24:25 *79:12 0.000187977
20 *22:12 *24:25 0.000185755
*RES
1 *196:Y *24:6 23.6214 
2 *24:6 *198:B1 28.0957 
3 *24:6 *24:25 32.61 
4 *24:25 *201:A1 25.5271 
5 *24:25 *199:B 25.0714 
*END

*D_NET *25 0.000105752
*CONN
*I *198:C1 I *D sky130_fd_sc_hd__o211a_1
*I *197:X O *D sky130_fd_sc_hd__a21o_1
*CAP
1 *198:C1 8.37909e-06
2 *197:X 8.37909e-06
3 *198:C1 *82:16 3.22879e-05
4 *198:B1 *198:C1 5.67058e-05
*RES
1 *197:X *198:C1 46.6214 
*END

*D_NET *26 0.0020716
*CONN
*I *223:A I *D sky130_fd_sc_hd__xnor2_1
*I *220:A I *D sky130_fd_sc_hd__nor2_1
*I *201:B1_N I *D sky130_fd_sc_hd__a21bo_1
*I *199:X O *D sky130_fd_sc_hd__or2_1
*CAP
1 *223:A 0.000185873
2 *220:A 0.000142944
3 *201:B1_N 5.54152e-05
4 *199:X 0.00024377
5 *26:17 0.000382271
6 *26:6 0.00035264
7 *201:B1_N *83:25 5.27215e-06
8 *220:A *220:B 5.50106e-05
9 *220:A *224:B1_N 3.22879e-05
10 *223:A *223:B 0.000265664
11 *223:A *45:8 3.70187e-05
12 *223:A *86:8 0
13 *26:6 *83:25 1.16622e-05
14 *26:17 *45:8 0.000111852
15 *26:17 *86:8 0
16 *201:A1 *26:6 0.000103637
17 *10:8 *26:17 8.62876e-05
*RES
1 *199:X *26:6 26.48 
2 *26:6 *201:B1_N 23.6214 
3 *26:6 *26:17 16.5536 
4 *26:17 *220:A 40.5479 
5 *26:17 *223:A 42.2879 
*END

*D_NET *27 0.000881375
*CONN
*I *201:A2 I *D sky130_fd_sc_hd__a21bo_1
*I *200:Y O *D sky130_fd_sc_hd__nand2_1
*CAP
1 *201:A2 0
2 *200:Y 0.000130637
3 *27:6 0.000130637
4 *27:6 *28:8 0.000305425
5 *27:6 *79:83 1.40958e-05
6 *27:6 *83:25 4.95081e-05
7 *199:B *27:6 6.82514e-05
8 *201:A1 *27:6 0.00018282
*RES
1 *200:Y *27:6 27.4329 
2 *27:6 *201:A2 23 
*END

*D_NET *28 0.00255281
*CONN
*I *203:A I *D sky130_fd_sc_hd__nand2_1
*I *204:A I *D sky130_fd_sc_hd__or2_1
*I *201:X O *D sky130_fd_sc_hd__a21bo_1
*CAP
1 *203:A 0
2 *204:A 0
3 *201:X 0.000528294
4 *28:16 0.000109134
5 *28:8 0.000637429
6 *28:8 *203:B 2.93431e-05
7 *28:8 *221:A2 2.64616e-05
8 *28:8 *221:B1 4.03068e-05
9 *28:8 *29:42 0.000138321
10 *28:8 *47:14 9.95617e-05
11 *28:8 *82:63 2.16575e-05
12 *28:8 *83:25 0.000346292
13 *28:16 *204:B 4.38014e-05
14 *28:16 *221:B1 5.50106e-05
15 *28:16 *30:8 0.000113153
16 *28:16 *82:63 5.86204e-05
17 *27:6 *28:8 0.000305425
*RES
1 *201:X *28:8 34.9521 
2 *28:8 *28:16 32.8793 
3 *28:16 *204:A 23 
4 *28:8 *203:A 23 
*END

*D_NET *29 0.00428004
*CONN
*I *204:B I *D sky130_fd_sc_hd__or2_1
*I *203:B I *D sky130_fd_sc_hd__nand2_1
*I *207:C I *D sky130_fd_sc_hd__and3_1
*I *212:D_N I *D sky130_fd_sc_hd__or4b_1
*I *202:Y O *D sky130_fd_sc_hd__nand2_1
*CAP
1 *204:B 0.000108638
2 *203:B 2.26091e-05
3 *207:C 6.73817e-05
4 *212:D_N 2.31178e-05
5 *202:Y 0.000210526
6 *29:42 0.000732919
7 *29:19 0.000923607
8 *29:6 0.000488198
9 *203:B *221:B1 5.3304e-05
10 *204:B *48:10 0
11 *204:B *82:63 5.86204e-05
12 *207:C *79:59 8.61913e-05
13 *212:D_N *202:B 0
14 *29:6 *195:A 3.22465e-05
15 *29:6 *202:B 3.79854e-05
16 *29:6 *85:36 8.29052e-05
17 *29:19 *212:C 0.000183488
18 *29:19 *85:40 3.90643e-05
19 *29:19 *85:46 3.76854e-05
20 *29:42 *212:C 0.000107844
21 *29:42 *221:A2 0
22 *29:42 *221:B1 0
23 *29:42 *37:10 0.000305555
24 *29:42 *48:10 0
25 *29:42 *81:10 0
26 *29:42 *82:63 0.00040346
27 *29:42 *85:46 6.32281e-05
28 *28:8 *203:B 2.93431e-05
29 *28:8 *29:42 0.000138321
30 *28:16 *204:B 4.38014e-05
*RES
1 *202:Y *29:6 26.48 
2 *29:6 *212:D_N 23.4971 
3 *29:6 *29:19 19.205 
4 *29:19 *207:C 38.9632 
5 *29:19 *29:42 42.1386 
6 *29:42 *203:B 38.6214 
7 *29:42 *204:B 40.2579 
*END

*D_NET *30 0.000473628
*CONN
*I *205:A I *D sky130_fd_sc_hd__and2_1
*I *203:Y O *D sky130_fd_sc_hd__nand2_1
*CAP
1 *205:A 4.5801e-05
2 *203:Y 9.4544e-05
3 *30:8 0.000140345
4 *205:A *31:8 5.79559e-05
5 *205:A *53:8 2.18286e-05
6 *30:8 *48:10 0
7 *28:16 *30:8 0.000113153
*RES
1 *203:Y *30:8 39.9057 
2 *30:8 *205:A 39.0979 
*END

*D_NET *31 0.000884125
*CONN
*I *228:A I *D sky130_fd_sc_hd__nor2_1
*I *249:A I *D sky130_fd_sc_hd__and2_1
*I *205:B I *D sky130_fd_sc_hd__and2_1
*I *204:X O *D sky130_fd_sc_hd__or2_1
*CAP
1 *228:A 0.000104412
2 *249:A 0
3 *205:B 0
4 *204:X 5.59259e-05
5 *31:15 0.000155748
6 *31:8 0.000107262
7 *228:A *228:B 8.77027e-05
8 *228:A *249:B 9.90933e-06
9 *228:A *53:8 2.9938e-05
10 *228:A *54:14 2.46468e-05
11 *228:A *71:10 3.22879e-05
12 *31:8 *53:8 0.000145393
13 *31:15 *53:8 7.29437e-05
14 *205:A *31:8 5.79559e-05
*RES
1 *204:X *31:8 25.0714 
2 *31:8 *205:B 23 
3 *31:8 *31:15 1.57429 
4 *31:15 *249:A 23 
5 *31:15 *228:A 26.5214 
*END

*D_NET *32 0.00309351
*CONN
*I *215:A I *D sky130_fd_sc_hd__xnor2_1
*I *214:A I *D sky130_fd_sc_hd__or2_1
*I *242:C I *D sky130_fd_sc_hd__and3_1
*I *206:Y O *D sky130_fd_sc_hd__nand2_1
*CAP
1 *215:A 0.000233992
2 *214:A 0.000182091
3 *242:C 0.000271159
4 *206:Y 0.000143356
5 *32:21 0.000555087
6 *32:8 0.000553519
7 *214:A *214:B 0.000173898
8 *214:A *39:8 9.84851e-05
9 *215:A *39:14 7.80251e-05
10 *215:A *80:66 2.36871e-05
11 *215:A *81:29 9.38027e-05
12 *215:A *81:74 0.000106288
13 *242:C *60:12 9.60177e-05
14 *242:C *66:10 5.54294e-05
15 *242:C *80:53 8.69339e-05
16 *242:C *81:29 3.83778e-05
17 *32:8 *38:8 0.000182087
18 *32:21 *81:29 0.000121273
*RES
1 *206:Y *32:8 40.0507 
2 *32:8 *242:C 43.4479 
3 *32:8 *32:21 3.31429 
4 *32:21 *214:A 41.9564 
5 *32:21 *215:A 43.2407 
*END

*D_NET *33 0.000517269
*CONN
*I *213:A I *D sky130_fd_sc_hd__xor2_1
*I *207:X O *D sky130_fd_sc_hd__and3_1
*CAP
1 *213:A 0.000160355
2 *207:X 0.000160355
3 *213:A *213:B 0.000102389
4 *213:A *79:59 9.41704e-05
*RES
1 *207:X *213:A 49.3764 
*END

*D_NET *34 0.0028671
*CONN
*I *211:S I *D sky130_fd_sc_hd__mux2_1
*I *222:B1 I *D sky130_fd_sc_hd__a211o_1
*I *209:B I *D sky130_fd_sc_hd__and2_1
*I *208:X O *D sky130_fd_sc_hd__and3_1
*CAP
1 *211:S 0.000105862
2 *222:B1 6.25017e-05
3 *209:B 0.000322913
4 *208:X 0
5 *34:23 0.000313177
6 *34:4 0.000467726
7 *209:B *194:A 0.000185434
8 *209:B *208:C 8.69339e-05
9 *209:B *81:14 2.8354e-05
10 *209:B *82:63 6.92042e-05
11 *211:S *211:A0 0.000140908
12 *211:S *50:12 0.00016868
13 *211:S *83:55 0.00018579
14 *222:B1 *222:C1 5.46749e-05
15 *222:B1 *50:12 4.03993e-05
16 *222:B1 *83:55 0.000141706
17 *34:23 *82:63 0.000131538
18 *222:A1 *222:B1 5.47983e-06
19 *22:12 *209:B 0.000184527
20 *22:25 *209:B 0.000171296
21 *22:25 *34:23 0
*RES
1 *208:X *34:4 23 
2 *34:4 *209:B 30.9543 
3 *34:4 *34:23 31.9057 
4 *34:23 *222:B1 25.7136 
5 *34:23 *211:S 26.9771 
*END

*D_NET *35 0.00280433
*CONN
*I *233:A I *D sky130_fd_sc_hd__nand2_1
*I *234:A I *D sky130_fd_sc_hd__xnor2_1
*I *209:X O *D sky130_fd_sc_hd__and2_1
*CAP
1 *233:A 9.14747e-06
2 *234:A 0.00018888
3 *209:X 0.000594202
4 *35:14 0.00048773
5 *35:8 0.000883904
6 *233:A *234:B 0
7 *233:A *235:A 1.37232e-05
8 *234:A *234:B 0.000195149
9 *234:A *59:8 4.95081e-05
10 *35:8 *60:8 5.36457e-05
11 *35:8 *72:14 0
12 *35:8 *79:14 0
13 *35:8 *81:10 0
14 *35:8 *85:20 0
15 *35:14 *235:A 0.000275478
16 *35:14 *243:A2 1.76557e-05
17 *35:14 *59:8 3.53115e-05
18 *23:10 *35:8 0
*RES
1 *209:X *35:8 47.6529 
2 *35:8 *35:14 19.93 
3 *35:14 *234:A 26.9771 
4 *35:14 *233:A 23.4971 
*END

*D_NET *36 0.000695855
*CONN
*I *211:A0 I *D sky130_fd_sc_hd__mux2_1
*I *210:Y O *D sky130_fd_sc_hd__nand2_1
*CAP
1 *211:A0 9.71701e-05
2 *210:Y 9.71701e-05
3 *211:A0 *210:A 0.00015157
4 *211:A0 *50:12 0.000151739
5 *211:A0 *83:55 5.72975e-05
6 *211:S *211:A0 0.000140908
*RES
1 *210:Y *211:A0 49.9979 
*END

*D_NET *37 0.0021092
*CONN
*I *213:B I *D sky130_fd_sc_hd__xor2_1
*I *212:C I *D sky130_fd_sc_hd__or4b_1
*I *211:X O *D sky130_fd_sc_hd__mux2_1
*CAP
1 *213:B 5.33349e-05
2 *212:C 0.000205041
3 *211:X 0.000284226
4 *37:10 0.000542602
5 *212:C *79:59 0.000139657
6 *212:C *80:66 0
7 *212:C *85:40 3.7122e-06
8 *212:C *85:46 5.44889e-06
9 *212:C *85:61 1.34995e-05
10 *37:10 *83:55 9.41704e-05
11 *212:A *212:C 6.82356e-05
12 *213:A *213:B 0.000102389
13 *29:19 *212:C 0.000183488
14 *29:42 *212:C 0.000107844
15 *29:42 *37:10 0.000305555
*RES
1 *211:X *37:10 43.6446 
2 *37:10 *212:C 43.4789 
3 *37:10 *213:B 39.4189 
*END

*D_NET *38 0.00280059
*CONN
*I *236:A I *D sky130_fd_sc_hd__and3_1
*I *237:A I *D sky130_fd_sc_hd__nand3_1
*I *238:A1 I *D sky130_fd_sc_hd__a21oi_1
*I *212:X O *D sky130_fd_sc_hd__or4b_1
*CAP
1 *236:A 0.000281029
2 *237:A 0
3 *238:A1 2.0995e-05
4 *212:X 0.000524363
5 *38:21 0.000372647
6 *38:8 0.000636976
7 *236:A *236:B 0.000215008
8 *236:A *238:A2 0
9 *236:A *245:B1 3.32167e-06
10 *236:A *62:8 1.22822e-05
11 *238:A1 *238:A2 1.14154e-05
12 *38:8 *238:A2 1.76557e-05
13 *38:8 *62:8 0
14 *38:8 *84:89 0.000140939
15 *38:21 *237:C 5.50106e-05
16 *38:21 *238:A2 0.00012188
17 *38:21 *245:B1 0
18 *38:21 *62:8 1.91381e-05
19 *38:21 *63:6 8.40765e-05
20 *212:A *38:8 0.000101764
21 *32:8 *38:8 0.000182087
*RES
1 *212:X *38:8 33.1707 
2 *38:8 *238:A1 23.4971 
3 *38:8 *38:21 3.64571 
4 *38:21 *237:A 23 
5 *38:21 *236:A 27.8264 
*END

*D_NET *39 0.000993217
*CONN
*I *214:B I *D sky130_fd_sc_hd__or2_1
*I *215:B I *D sky130_fd_sc_hd__xnor2_1
*I *213:X O *D sky130_fd_sc_hd__xor2_1
*CAP
1 *214:B 6.7044e-05
2 *215:B 0
3 *213:X 0.000101159
4 *39:14 0.000120795
5 *39:8 0.000288998
6 *39:14 *81:74 6.48142e-05
7 *214:A *214:B 0.000173898
8 *214:A *39:8 9.84851e-05
9 *215:A *39:14 7.80251e-05
*RES
1 *213:X *39:8 25.0714 
2 *39:8 *39:14 32.9621 
3 *39:14 *215:B 23 
4 *39:8 *214:B 25.0507 
*END

*D_NET *40 0.00240856
*CONN
*I *237:B I *D sky130_fd_sc_hd__nand3_1
*I *238:A2 I *D sky130_fd_sc_hd__a21oi_1
*I *236:B I *D sky130_fd_sc_hd__and3_1
*I *214:X O *D sky130_fd_sc_hd__or2_1
*CAP
1 *237:B 0
2 *238:A2 0.000162439
3 *236:B 0.000327904
4 *214:X 0.000281879
5 *40:33 0.000162439
6 *40:10 0.000609782
7 *236:B *236:C 1.32314e-05
8 *236:B *245:A1 3.69332e-05
9 *236:B *245:B1 1.14154e-05
10 *236:B *51:10 2.31116e-05
11 *236:B *60:40 6.12496e-06
12 *236:B *61:10 2.4754e-05
13 *236:B *62:8 4.9662e-05
14 *236:B *62:25 7.68555e-05
15 *238:A2 *237:C 5.50106e-05
16 *40:10 *51:10 3.04021e-05
17 *40:10 *60:40 0.000170661
18 *236:A *236:B 0.000215008
19 *236:A *238:A2 0
20 *238:A1 *238:A2 1.14154e-05
21 *38:8 *238:A2 1.76557e-05
22 *38:21 *238:A2 0.00012188
*RES
1 *214:X *40:10 42.5571 
2 *40:10 *236:B 45.54 
3 *40:10 *40:33 15 
4 *40:33 *238:A2 26.5007 
5 *40:33 *237:B 23 
*END

*D_NET *41 0.000842044
*CONN
*I *225:A_N I *D sky130_fd_sc_hd__and2b_1
*I *226:A I *D sky130_fd_sc_hd__xnor2_1
*I *215:Y O *D sky130_fd_sc_hd__xnor2_1
*CAP
1 *225:A_N 0.000101787
2 *226:A 0
3 *215:Y 0.000231637
4 *41:12 0.000101787
5 *41:10 0.000231637
6 *225:A_N *225:B 6.51763e-05
7 *225:A_N *52:10 5.50106e-05
8 *225:A_N *54:31 5.50106e-05
9 *41:10 *51:10 0
10 *41:10 *54:31 0
11 *41:10 *81:74 0
*RES
1 *215:Y *41:10 41.48 
2 *41:10 *41:12 15 
3 *41:12 *226:A 23 
4 *41:12 *225:A_N 25.5271 
*END

*D_NET *42 0.000332747
*CONN
*I *219:A2 I *D sky130_fd_sc_hd__a211o_1
*I *216:Y O *D sky130_fd_sc_hd__nand3b_1
*CAP
1 *219:A2 0
2 *216:Y 0.000102688
3 *42:8 0.000102688
4 *42:8 *43:12 3.884e-05
5 *42:8 *45:8 6.07611e-06
6 *42:8 *79:35 7.10099e-05
7 *42:8 *84:14 0
8 *19:10 *42:8 1.14452e-05
*RES
1 *216:Y *42:8 40.2579 
2 *42:8 *219:A2 38 
*END

*D_NET *43 0.00227778
*CONN
*I *219:B1 I *D sky130_fd_sc_hd__a211o_1
*I *233:B I *D sky130_fd_sc_hd__nand2_1
*I *234:B I *D sky130_fd_sc_hd__xnor2_1
*I *217:X O *D sky130_fd_sc_hd__and4_1
*CAP
1 *219:B1 0.000105846
2 *233:B 0
3 *234:B 8.29136e-05
4 *217:X 0.000139771
5 *43:12 0.000408712
6 *43:6 0.000571416
7 *219:B1 *202:B 0.000141318
8 *219:B1 *217:A 0.000253034
9 *219:B1 *219:C1 2.02517e-05
10 *219:B1 *72:23 1.24376e-05
11 *234:B *59:8 6.07084e-05
12 *43:6 *202:B 0.000100733
13 *43:6 *217:A 5.50049e-05
14 *43:6 *85:14 9.16459e-05
15 *43:12 *60:8 0
16 *43:12 *79:35 0
17 *43:12 *84:10 0
18 *43:12 *84:14 0
19 *233:A *234:B 0
20 *234:A *234:B 0.000195149
21 *42:8 *43:12 3.884e-05
*RES
1 *217:X *43:6 26.48 
2 *43:6 *43:12 35.4271 
3 *43:12 *234:B 25.5479 
4 *43:12 *233:B 23 
5 *43:6 *219:B1 26.5007 
*END

*D_NET *44 0.00016493
*CONN
*I *219:C1 I *D sky130_fd_sc_hd__a211o_1
*I *218:X O *D sky130_fd_sc_hd__and2b_1
*CAP
1 *219:C1 1.77162e-05
2 *218:X 1.77162e-05
3 *219:C1 *202:A 2.02517e-05
4 *219:C1 *202:B 5.67058e-05
5 *219:C1 *72:23 3.22879e-05
6 *219:B1 *219:C1 2.02517e-05
*RES
1 *218:X *219:C1 47.1186 
*END

*D_NET *45 0.0026032
*CONN
*I *223:B I *D sky130_fd_sc_hd__xnor2_1
*I *220:B I *D sky130_fd_sc_hd__nor2_1
*I *219:X O *D sky130_fd_sc_hd__a211o_1
*CAP
1 *223:B 0.000185729
2 *220:B 2.79004e-05
3 *219:X 0
4 *45:8 0.000919817
5 *45:6 0.000706187
6 *223:B *79:10 7.4416e-05
7 *45:8 *72:10 0
8 *45:8 *72:14 0
9 *45:8 *72:48 0
10 *45:8 *79:10 0
11 *45:8 *79:12 0
12 *45:8 *79:14 0
13 *45:8 *84:14 0
14 *220:A *220:B 5.50106e-05
15 *223:A *223:B 0.000265664
16 *223:A *45:8 3.70187e-05
17 *10:8 *45:8 0.000176408
18 *19:10 *45:8 3.71198e-05
19 *26:17 *45:8 0.000111852
20 *42:8 *45:8 6.07611e-06
*RES
1 *219:X *45:6 38 
2 *45:6 *45:8 13.8786 
3 *45:8 *220:B 38.6214 
4 *45:8 *223:B 42.5364 
*END

*D_NET *46 0.00047849
*CONN
*I *224:B1_N I *D sky130_fd_sc_hd__o21bai_1
*I *220:Y O *D sky130_fd_sc_hd__nor2_1
*CAP
1 *224:B1_N 0.000223101
2 *220:Y 0.000223101
3 *220:A *224:B1_N 3.22879e-05
*RES
1 *220:Y *224:B1_N 49.9564 
*END

*D_NET *47 0.000939355
*CONN
*I *222:C1 I *D sky130_fd_sc_hd__a211o_1
*I *221:Y O *D sky130_fd_sc_hd__a21oi_1
*CAP
1 *222:C1 4.44307e-05
2 *221:Y 0.000233213
3 *47:14 0.000277644
4 *222:C1 *50:12 0.000100069
5 *222:C1 *82:47 6.17437e-06
6 *222:C1 *83:55 9.78729e-06
7 *47:14 *221:A2 2.02318e-05
8 *47:14 *48:10 8.62876e-05
9 *222:A1 *222:C1 7.28142e-06
10 *222:B1 *222:C1 5.46749e-05
11 *28:8 *47:14 9.95617e-05
*RES
1 *221:Y *47:14 41.77 
2 *47:14 *222:C1 39.595 
*END

*D_NET *48 0.00133539
*CONN
*I *227:A I *D sky130_fd_sc_hd__xnor2_1
*I *224:A1 I *D sky130_fd_sc_hd__o21bai_1
*I *222:X O *D sky130_fd_sc_hd__a211o_1
*CAP
1 *227:A 0
2 *224:A1 0.0001041
3 *222:X 0.000295951
4 *48:12 0.0001041
5 *48:10 0.000295951
6 *224:A1 *227:B 0.000187129
7 *48:10 *221:A2 0.000164291
8 *48:10 *49:10 0
9 *48:10 *50:8 0
10 *48:10 *50:12 9.75779e-05
11 *204:B *48:10 0
12 *29:42 *48:10 0
13 *30:8 *48:10 0
14 *47:14 *48:10 8.62876e-05
*RES
1 *222:X *48:10 43.8207 
2 *48:10 *48:12 15 
3 *48:12 *224:A1 25.5271 
4 *48:12 *227:A 23 
*END

*D_NET *49 0.00158091
*CONN
*I *227:B I *D sky130_fd_sc_hd__xnor2_1
*I *224:A2 I *D sky130_fd_sc_hd__o21bai_1
*I *223:Y O *D sky130_fd_sc_hd__xnor2_1
*CAP
1 *227:B 0.000148567
2 *224:A2 0
3 *223:Y 0.000455608
4 *49:12 0.000148567
5 *49:10 0.000455608
6 *49:10 *79:10 0.000185428
7 *224:A1 *227:B 0.000187129
8 *48:10 *49:10 0
*RES
1 *223:Y *49:10 45.9957 
2 *49:10 *49:12 15 
3 *49:12 *224:A2 23 
4 *49:12 *227:B 26.5007 
*END

*D_NET *50 0.00422426
*CONN
*I *225:B I *D sky130_fd_sc_hd__and2b_1
*I *226:B I *D sky130_fd_sc_hd__xnor2_1
*I *224:Y O *D sky130_fd_sc_hd__o21bai_1
*CAP
1 *225:B 0.00033904
2 *226:B 2.34823e-05
3 *224:Y 0.000196206
4 *50:12 0.00119578
5 *50:8 0.00102947
6 *225:B *52:10 0.000103647
7 *226:B *52:10 0
8 *50:8 *200:B 7.6144e-05
9 *50:8 *79:10 0
10 *50:8 *79:12 0
11 *50:8 *79:89 0.000190218
12 *50:8 *83:27 0.000111852
13 *50:12 *82:32 3.52383e-05
14 *50:12 *82:47 2.7435e-05
15 *211:A0 *50:12 0.000151739
16 *211:S *50:12 0.00016868
17 *222:A1 *50:12 0.000272101
18 *222:B1 *50:12 4.03993e-05
19 *222:C1 *50:12 0.000100069
20 *225:A_N *225:B 6.51763e-05
21 *48:10 *50:8 0
22 *48:10 *50:12 9.75779e-05
*RES
1 *224:Y *50:8 42.3707 
2 *50:8 *50:12 31.3436 
3 *50:12 *226:B 23.4971 
4 *50:12 *225:B 28.4271 
*END

*D_NET *51 0.00267619
*CONN
*I *240:B1 I *D sky130_fd_sc_hd__a21oi_1
*I *245:A1 I *D sky130_fd_sc_hd__o21a_1
*I *246:A1 I *D sky130_fd_sc_hd__o211a_1
*I *225:X O *D sky130_fd_sc_hd__and2b_1
*CAP
1 *240:B1 0.000156006
2 *245:A1 8.98323e-05
3 *246:A1 6.04612e-05
4 *225:X 0
5 *51:10 0.000601699
6 *51:4 0.000607412
7 *240:B1 *52:10 1.76557e-05
8 *240:B1 *54:31 6.07084e-05
9 *240:B1 *65:10 1.39431e-05
10 *245:A1 *245:A2 9.67842e-05
11 *245:A1 *245:B1 4.00259e-06
12 *245:A1 *62:8 5.3304e-05
13 *245:A1 *62:25 8.43466e-05
14 *245:A1 *63:6 5.3304e-05
15 *246:A1 *239:B 2.46345e-05
16 *246:A1 *246:A2 0.000169665
17 *246:A1 *69:8 0.00019654
18 *51:10 *239:B 0.000240435
19 *51:10 *54:31 5.50106e-05
20 *51:10 *60:16 0
21 *51:10 *64:10 0
22 *51:10 *65:10 0
23 *236:B *245:A1 3.69332e-05
24 *236:B *51:10 2.31116e-05
25 *40:10 *51:10 3.04021e-05
26 *41:10 *51:10 0
*RES
1 *225:X *51:4 23 
2 *51:4 *51:10 23.8657 
3 *51:10 *246:A1 40.61 
4 *51:10 *245:A1 40.5479 
5 *51:4 *240:B1 25.5479 
*END

*D_NET *52 0.001576
*CONN
*I *240:A1 I *D sky130_fd_sc_hd__a21oi_1
*I *229:A I *D sky130_fd_sc_hd__xor2_1
*I *226:Y O *D sky130_fd_sc_hd__xnor2_1
*CAP
1 *240:A1 0
2 *229:A 0
3 *226:Y 0.000163736
4 *52:18 0.000424197
5 *52:10 0.000587933
6 *52:10 *54:31 0.00015994
7 *52:18 *54:31 0
8 *52:18 *65:10 6.38845e-05
9 *52:18 *76:10 0
10 *225:A_N *52:10 5.50106e-05
11 *225:B *52:10 0.000103647
12 *226:B *52:10 0
13 *240:B1 *52:10 1.76557e-05
*RES
1 *226:Y *52:10 27.9507 
2 *52:10 *52:18 37.3536 
3 *52:18 *229:A 23 
4 *52:10 *240:A1 23 
*END

*D_NET *53 0.00166758
*CONN
*I *228:B I *D sky130_fd_sc_hd__nor2_1
*I *249:B I *D sky130_fd_sc_hd__and2_1
*I *227:Y O *D sky130_fd_sc_hd__xnor2_1
*CAP
1 *228:B 0.000115152
2 *249:B 1.61507e-05
3 *227:Y 0.000496346
4 *53:8 0.000627649
5 *228:B *54:14 1.22822e-05
6 *228:B *54:21 3.22879e-05
7 *205:A *53:8 2.18286e-05
8 *228:A *228:B 8.77027e-05
9 *228:A *249:B 9.90933e-06
10 *228:A *53:8 2.9938e-05
11 *31:8 *53:8 0.000145393
12 *31:15 *53:8 7.29437e-05
*RES
1 *227:Y *53:8 29.8357 
2 *53:8 *249:B 23.4971 
3 *53:8 *228:B 26.0243 
*END

*D_NET *54 0.00266813
*CONN
*I *229:B I *D sky130_fd_sc_hd__xor2_1
*I *240:A2 I *D sky130_fd_sc_hd__a21oi_1
*I *250:A I *D sky130_fd_sc_hd__nor2_1
*I *228:Y O *D sky130_fd_sc_hd__nor2_1
*CAP
1 *229:B 0.000113511
2 *240:A2 0
3 *250:A 0
4 *228:Y 0
5 *54:31 0.000524648
6 *54:21 0.000897321
7 *54:14 0.000194234
8 *54:4 0.000453396
9 *54:14 *71:10 8.51329e-05
10 *225:A_N *54:31 5.50106e-05
11 *228:A *54:14 2.46468e-05
12 *228:B *54:14 1.22822e-05
13 *228:B *54:21 3.22879e-05
14 *240:B1 *54:31 6.07084e-05
15 *41:10 *54:31 0
16 *51:10 *54:31 5.50106e-05
17 *52:10 *54:31 0.00015994
18 *52:18 *54:31 0
*RES
1 *228:Y *54:4 23 
2 *54:4 *54:14 33.7286 
3 *54:14 *250:A 23 
4 *54:4 *54:21 4.90929 
5 *54:21 *54:31 40.4607 
6 *54:31 *240:A2 23 
7 *54:21 *229:B 25.0507 
*END

*D_NET *55 0.00060876
*CONN
*I *232:B1 I *D sky130_fd_sc_hd__a211o_1
*I *230:Y O *D sky130_fd_sc_hd__a31oi_1
*CAP
1 *232:B1 0
2 *230:Y 0.000147345
3 *55:10 0.000147345
4 *55:10 *84:49 4.66047e-05
5 *55:10 *84:66 0.000179754
6 *230:A2 *55:10 8.16356e-05
7 *23:10 *55:10 6.07611e-06
*RES
1 *230:Y *55:10 41.3557 
2 *55:10 *232:B1 38 
*END

*D_NET *56 0.000807162
*CONN
*I *248:C1 I *D sky130_fd_sc_hd__a211o_1
*I *232:C1 I *D sky130_fd_sc_hd__a211o_1
*I *231:X O *D sky130_fd_sc_hd__and4_1
*CAP
1 *248:C1 0.000100938
2 *232:C1 3.52036e-05
3 *231:X 0
4 *56:4 0.000136141
5 *232:C1 *232:A2 5.56356e-05
6 *232:C1 *67:10 2.18286e-05
7 *248:C1 *232:A2 4.93812e-05
8 *248:C1 *248:B1 1.12349e-05
9 *248:C1 *67:10 0.000322904
10 *248:C1 *84:66 5.92671e-05
11 *248:C1 *84:89 1.46286e-05
*RES
1 *231:X *56:4 23 
2 *56:4 *232:C1 24.1186 
3 *56:4 *248:C1 26.9771 
*END

*D_NET *57 0.00101924
*CONN
*I *235:A I *D sky130_fd_sc_hd__xnor2_1
*I *243:A1 I *D sky130_fd_sc_hd__o21ai_1
*I *232:X O *D sky130_fd_sc_hd__a211o_1
*CAP
1 *235:A 0.000127395
2 *243:A1 0
3 *232:X 5.41192e-05
4 *57:6 0.000181515