*SPEF "ieee 1481-1999"
*DESIGN "Sarsa_Ruido_e9_1"
*DATE "11:49:45 Friday September 12, 2025"
*VENDOR "The OpenROAD Project"
*PROGRAM "OpenROAD"
*VERSION "edf00dff99f6c40d67a30c0e22a8191c5d2ed9d6"
*DESIGN_FLOW "NAME_SCOPE LOCAL" "PIN_CAP NONE"
*DIVIDER /
*DELIMITER :
*BUS_DELIMITER []
*T_UNIT 1 NS
*C_UNIT 1 PF
*R_UNIT 1 OHM
*L_UNIT 1 HENRY

*NAME_MAP
*1 A[0]
*2 A[1]
*3 B[0]
*4 B[1]
*5 P[0]
*6 P[1]
*7 P[2]
*8 P[3]
*11 _00_
*12 _01_
*13 _02_
*14 _03_
*15 _04_
*16 _05_
*17 _06_
*18 _07_
*19 _08_
*20 net1
*21 net2
*22 net3
*23 net4
*24 net5
*25 net6
*26 net7
*27 net8
*28 FILLER_0_15
*29 FILLER_0_27
*30 FILLER_0_29
*31 FILLER_0_3
*32 FILLER_0_41
*33 FILLER_0_53
*34 FILLER_0_57
*35 FILLER_0_69
*36 FILLER_1_15
*37 FILLER_1_27
*38 FILLER_1_3
*39 FILLER_1_39
*40 FILLER_1_51
*41 FILLER_1_55
*42 FILLER_1_57
*43 FILLER_1_69
*44 FILLER_2_13
*45 FILLER_2_25
*46 FILLER_2_29
*47 FILLER_2_41
*48 FILLER_2_53
*49 FILLER_2_65
*50 FILLER_2_77
*51 FILLER_3_15
*52 FILLER_3_3
*53 FILLER_3_31
*54 FILLER_3_43
*55 FILLER_3_55
*56 FILLER_3_57
*57 FILLER_3_69
*58 FILLER_4_18
*59 FILLER_4_26
*60 FILLER_4_44
*61 FILLER_4_56
*62 FILLER_4_6
*63 FILLER_4_63
*64 FILLER_4_75
*65 FILLER_5_18
*66 FILLER_5_30
*67 FILLER_5_42
*68 FILLER_5_54
*69 FILLER_5_57
*70 FILLER_5_6
*71 FILLER_5_65
*72 FILLER_5_77
*73 FILLER_6_10
*74 FILLER_6_18
*75 FILLER_6_26
*76 FILLER_6_29
*77 FILLER_6_41
*78 FILLER_6_49
*79 FILLER_6_56
*80 FILLER_6_6
*81 FILLER_6_68
*82 FILLER_6_76
*83 FILLER_7_21
*84 FILLER_7_33
*85 FILLER_7_45
*86 FILLER_7_53
*87 FILLER_7_57
*88 FILLER_7_69
*89 FILLER_7_7
*90 FILLER_8_15
*91 FILLER_8_27
*92 FILLER_8_3
*93 FILLER_8_42
*94 FILLER_8_54
*95 FILLER_8_66
*96 FILLER_8_78
*97 FILLER_9_15
*98 FILLER_9_27
*99 FILLER_9_29
*100 FILLER_9_3
*101 FILLER_9_41
*102 FILLER_9_49
*103 FILLER_9_55
*104 FILLER_9_57
*105 FILLER_9_69
*106 PHY_EDGE_ROW_0_Left_10
*107 PHY_EDGE_ROW_0_Right_0
*108 PHY_EDGE_ROW_1_Left_11
*109 PHY_EDGE_ROW_1_Right_1
*110 PHY_EDGE_ROW_2_Left_12
*111 PHY_EDGE_ROW_2_Right_2
*112 PHY_EDGE_ROW_3_Left_13
*113 PHY_EDGE_ROW_3_Right_3
*114 PHY_EDGE_ROW_4_Left_14
*115 PHY_EDGE_ROW_4_Right_4
*116 PHY_EDGE_ROW_5_Left_15
*117 PHY_EDGE_ROW_5_Right_5
*118 PHY_EDGE_ROW_6_Left_16
*119 PHY_EDGE_ROW_6_Right_6
*120 PHY_EDGE_ROW_7_Left_17
*121 PHY_EDGE_ROW_7_Right_7
*122 PHY_EDGE_ROW_8_Left_18
*123 PHY_EDGE_ROW_8_Right_8
*124 PHY_EDGE_ROW_9_Left_19
*125 PHY_EDGE_ROW_9_Right_9
*126 TAP_TAPCELL_ROW_0_20
*127 TAP_TAPCELL_ROW_0_21
*128 TAP_TAPCELL_ROW_1_22
*129 TAP_TAPCELL_ROW_2_23
*130 TAP_TAPCELL_ROW_3_24
*131 TAP_TAPCELL_ROW_4_25
*132 TAP_TAPCELL_ROW_5_26
*133 TAP_TAPCELL_ROW_6_27
*134 TAP_TAPCELL_ROW_7_28
*135 TAP_TAPCELL_ROW_8_29
*136 TAP_TAPCELL_ROW_9_30
*137 TAP_TAPCELL_ROW_9_31
*138 _09_
*139 _10_
*140 _11_
*141 _12_
*142 _13_
*143 _14_
*144 _15_
*145 _16_
*146 _17_
*147 _18_
*148 _19_
*149 _20_
*150 _21_
*151 input1
*152 input2
*153 input3
*154 input4
*155 output5
*156 output6
*157 output7
*158 output8

*PORTS
A[0] I
A[1] I
B[0] I
B[1] I
P[0] O
P[1] O
P[2] O
P[3] O

*D_NET *1 0.00071699
*CONN
*P A[0] I
*I *151:A I *D sky130_fd_sc_hd__buf_1
*CAP
1 A[0] 0.000330094
2 *151:A 0
3 *1:17 0.000330094
4 *1:17 *153:A 2.79122e-05
5 *1:17 *4:17 2.88889e-05
*RES
1 A[0] *1:17 27.8627 
2 *1:17 *151:A 23 
*END

*D_NET *2 0.000624379
*CONN
*P A[1] I
*I *152:A I *D sky130_fd_sc_hd__dlymetal6s2s_1
*CAP
1 A[1] 0.000299123
2 *152:A 0.000299123
3 *152:A *4:17 2.61329e-05
*RES
1 A[1] *152:A 49.8062 
*END

*D_NET *3 0.000568138
*CONN
*P B[0] I
*I *153:A I *D sky130_fd_sc_hd__buf_1
*CAP
1 B[0] 0.000254489
2 *153:A 0.000254489
3 *153:A P[3] 1.5289e-05
4 *153:A *144:A 0
5 *153:A *8:14 1.59585e-05
6 *1:17 *153:A 2.79122e-05
*RES
1 B[0] *153:A 47.7832 
*END

*D_NET *4 0.000747356
*CONN
*P B[1] I
*I *154:A I *D sky130_fd_sc_hd__buf_1
*CAP
1 B[1] 0.000346167
2 *154:A 0
3 *4:17 0.000346167
4 *152:A *4:17 2.61329e-05
5 *1:17 *4:17 2.88889e-05
*RES
1 B[1] *4:17 28.2148 
2 *4:17 *154:A 23 
*END

*D_NET *5 0.000669166
*CONN
*P P[0] O
*I *155:X O *D sky130_fd_sc_hd__buf_2
*CAP
1 P[0] 0.000334583
2 *155:X 0.000334583
3 P[0] P[1] 0
*RES
1 *155:X P[0] 48.5734 
*END

*D_NET *6 0.000515599
*CONN
*P P[1] O
*I *156:X O *D sky130_fd_sc_hd__buf_2
*CAP
1 P[1] 0.000251428
2 *156:X 0.000251428
3 P[1] *25:10 1.27424e-05
4 P[0] P[1] 0
*RES
1 *156:X P[1] 47.1648 
*END

*D_NET *7 0.00100219
*CONN
*P P[2] O
*I *157:X O *D sky130_fd_sc_hd__buf_2
*CAP
1 P[2] 0.000501094
2 *157:X 0.000501094
*RES
1 *157:X P[2] 48.9786 
*END

*D_NET *8 0.000761479
*CONN
*P P[3] O
*I *158:X O *D sky130_fd_sc_hd__buf_2
*CAP
1 P[3] 8.65766e-05
2 *158:X 0.000278539
3 *8:14 0.000365116
4 *153:A P[3] 1.5289e-05
5 *153:A *8:14 1.59585e-05
*RES
1 *158:X *8:14 49.9 
2 *8:14 P[3] 0.382667 
*END

*D_NET *11 0.0021026
*CONN
*I *142:A I *D sky130_fd_sc_hd__and3_1
*I *139:X O *D sky130_fd_sc_hd__a2bb2o_1
*CAP
1 *142:A 0
2 *139:X 0.000776914
3 *11:12 0.000155226
4 *11:6 0.00093214
5 *11:6 *21:73 0.000234104
6 *11:12 *13:24 4.21594e-06
*RES
1 *139:X *11:6 36.485 
2 *11:6 *11:12 32.9621 
3 *11:12 *142:A 23 
*END

*D_NET *12 0.00160582
*CONN
*I *142:B I *D sky130_fd_sc_hd__and3_1
*I *147:A I *D sky130_fd_sc_hd__and3_1
*I *140:X O *D sky130_fd_sc_hd__or4_1
*CAP
1 *142:B 0
2 *147:A 0
3 *140:X 0.000629791
4 *12:12 0.000131095
5 *12:6 0.000760886
6 *12:12 *13:24 8.4047e-05
*RES
1 *140:X *12:6 31.2443 
2 *12:6 *12:12 32.61 
3 *12:12 *147:A 23 
4 *12:6 *142:B 23 
*END

*D_NET *13 0.00356539
*CONN
*I *149:A1 I *D sky130_fd_sc_hd__a21oi_1
*I *147:B I *D sky130_fd_sc_hd__and3_1
*I *142:C I *D sky130_fd_sc_hd__and3_1
*I *141:X O *D sky130_fd_sc_hd__or4bb_1
*CAP
1 *149:A1 0.000474268
2 *147:B 4.319e-05
3 *142:C 0
4 *141:X 0.00013444
5 *13:24 0.000177047
6 *13:16 0.00103376
7 *13:12 0.00142223
8 *147:B *147:C 5.27215e-06
9 *13:12 *140:B 5.73288e-05
10 *13:12 *140:C 0.000100803
11 *13:16 *147:C 2.87863e-05
12 *11:12 *13:24 4.21594e-06
13 *12:12 *13:24 8.4047e-05
*RES
1 *141:X *13:12 40.7964 
2 *13:12 *13:16 25.6264 
3 *13:16 *13:24 33.0657 
4 *13:24 *142:C 23 
5 *13:16 *147:B 23.6214 
6 *13:12 *149:A1 46.5964 
*END

*D_NET *14 0.000486141
*CONN
*I *148:S I *D sky130_fd_sc_hd__mux2_1
*I *143:Y O *D sky130_fd_sc_hd__nand2_1
*CAP
1 *148:S 6.7315e-05
2 *143:Y 0.000136309
3 *14:8 0.000203624
4 *148:S *19:23 7.88926e-05
5 *14:8 *148:A1 0
6 *14:8 *19:23 0
*RES
1 *143:Y *14:8 40.2579 
2 *14:8 *148:S 39.5743 
*END

*D_NET *15 0.00398322
*CONN
*I *146:A_N I *D sky130_fd_sc_hd__and2b_1
*I *149:B1 I *D sky130_fd_sc_hd__a21oi_1
*I *150:B1 I *D sky130_fd_sc_hd__a31o_1
*I *144:X O *D sky130_fd_sc_hd__and4_1
*CAP
1 *146:A_N 0
2 *149:B1 0
3 *150:B1 0
4 *144:X 0
5 *15:27 0.000575957
6 *15:19 0.00120692
7 *15:12 0.000142421
8 *15:4 0.000773386
9 *15:12 *150:A2 1.37349e-05
10 *15:12 *22:17 3.22879e-05
11 *15:12 *23:21 0.000166504
12 *15:19 *16:12 0.000802632
13 *15:19 *22:17 0.000269381
*RES
1 *144:X *15:4 23 
2 *15:4 *15:12 33.2314 
3 *15:12 *150:B1 23 
4 *15:4 *15:19 15.8671 
5 *15:19 *15:27 39.5079 
6 *15:27 *149:B1 23 
7 *15:19 *146:A_N 23 
*END

*D_NET *16 0.0022264
*CONN
*I *148:A1 I *D sky130_fd_sc_hd__mux2_1
*I *146:B I *D sky130_fd_sc_hd__and2b_1
*I *145:Y O *D sky130_fd_sc_hd__nand2b_1
*CAP
1 *148:A1 0.000137273
2 *146:B 0
3 *145:Y 0
4 *16:12 0.000574611
5 *16:6 0.000711884
6 *148:A1 *22:58 0
7 *16:12 *22:58 0
8 *14:8 *148:A1 0
9 *15:19 *16:12 0.000802632
*RES
1 *145:Y *16:6 38 
2 *16:6 *16:12 27.0557 
3 *16:12 *146:B 23 
4 *16:6 *148:A1 40.61 
*END

*D_NET *17 0.000742734
*CONN
*I *147:C I *D sky130_fd_sc_hd__and3_1
*I *146:X O *D sky130_fd_sc_hd__and2b_1
*CAP
1 *147:C 0.000274385
2 *146:X 7.99533e-05
3 *17:8 0.000354338
4 *147:B *147:C 5.27215e-06
5 *13:16 *147:C 2.87863e-05
*RES
1 *146:X *17:8 39.2014 
2 *17:8 *147:C 41.5629 
*END

*D_NET *18 0.000173988
*CONN
*I *149:A2 I *D sky130_fd_sc_hd__a21oi_1
*I *148:X O *D sky130_fd_sc_hd__mux2_1
*CAP
1 *149:A2 8.69939e-05
2 *148:X 8.69939e-05
*RES
1 *148:X *149:A2 47.4707 
*END

*D_NET *19 0.00149448
*CONN
*I *148:A0 I *D sky130_fd_sc_hd__mux2_1
*I *150:A1 I *D sky130_fd_sc_hd__a31o_1
*I *138:Y O *D sky130_fd_sc_hd__inv_2
*CAP
1 *148:A0 0
2 *150:A1 0.000148931
3 *138:Y 0
4 *19:23 0.000504672
5 *19:4 0.000653603
6 *150:A1 *138:A 6.07084e-05
7 *150:A1 *143:B 4.39607e-05
8 *150:A1 *150:A3 3.7122e-06
9 *150:A1 *158:A 0
10 *148:S *19:23 7.88926e-05
11 *14:8 *19:23 0
*RES
1 *138:Y *19:4 23 
2 *19:4 *150:A1 26.045 
3 *19:4 *19:23 38.3686 
4 *19:23 *148:A0 23 
*END

*D_NET *20 0.00408304
*CONN
*I *144:A I *D sky130_fd_sc_hd__and4_1
*I *141:C_N I *D sky130_fd_sc_hd__or4bb_1
*I *140:A I *D sky130_fd_sc_hd__or4_1
*I *139:B1 I *D sky130_fd_sc_hd__a2bb2o_1
*I *151:X O *D sky130_fd_sc_hd__buf_1
*CAP
1 *144:A 8.96072e-05
2 *141:C_N 0
3 *140:A 0.000196105
4 *139:B1 0
5 *151:X 0.000232445
6 *20:27 0.000512304
7 *20:14 0.000850986
8 *20:8 0.00085684
9 *140:A *140:B 0.000102497
10 *140:A *140:C 0.000142916
11 *140:A *140:D 0.000328184
12 *140:A *141:D_N 1.14154e-05
13 *140:A *22:36 2.93845e-05
14 *144:A *21:16 2.29192e-05
15 *144:A *21:25 9.21347e-06
16 *20:14 *21:12 7.88828e-05
17 *20:14 *21:16 0.000155729
18 *20:14 *21:62 0.000227417
19 *20:27 *139:A2_N 3.31683e-05
20 *20:27 *141:A 0
21 *20:27 *21:62 0.00012377
22 *20:27 *21:73 5.70419e-05
23 *20:27 *23:45 2.22183e-05
24 *153:A *144:A 0
*RES
1 *151:X *20:8 41.0036 
2 *20:8 *20:14 26.9936 
3 *20:14 *139:B1 23 
4 *20:14 *20:27 35.7379 
5 *20:27 *140:A 29.525 
6 *20:27 *141:C_N 23 
7 *20:8 *144:A 39.5536 
*END

*D_NET *21 0.00641497
*CONN
*I *140:C I *D sky130_fd_sc_hd__or4_1
*I *141:A I *D sky130_fd_sc_hd__or4bb_1
*I *139:A1_N I *D sky130_fd_sc_hd__a2bb2o_1
*I *150:A2 I *D sky130_fd_sc_hd__a31o_1
*I *145:B I *D sky130_fd_sc_hd__nand2b_1
*I *143:A I *D sky130_fd_sc_hd__nand2_1
*I *144:C I *D sky130_fd_sc_hd__and4_1
*I *152:X O *D sky130_fd_sc_hd__dlymetal6s2s_1
*CAP
1 *140:C 0.000136871
2 *141:A 5.45094e-06
3 *139:A1_N 0
4 *150:A2 5.64806e-05
5 *145:B 8.88053e-05
6 *143:A 1.10645e-05
7 *144:C 0
8 *152:X 0.000144946
9 *21:73 0.000434857
10 *21:62 0.000542657
11 *21:31 0.000493289
12 *21:25 0.000570766
13 *21:16 0.000425542
14 *21:12 0.000754997
15 *21:8 0.000345144
16 *140:C *140:B 2.18286e-05
17 *140:C *23:45 0
18 *143:A *138:A 6.26126e-05
19 *143:A *143:B 2.77232e-05
20 *145:B *138:A 3.32563e-05
21 *150:A2 *23:21 3.47781e-05
22 *21:16 *22:29 0
23 *21:16 *23:10 0.000302339
24 *21:25 *23:10 1.14452e-05
25 *21:25 *23:21 0.000210659
26 *21:31 *138:A 9.24795e-06
27 *21:31 *143:B 0.000470374
28 *21:31 *150:A3 5.3304e-05
29 *21:73 *139:A2_N 0
30 *140:A *140:C 0.000142916
31 *144:A *21:16 2.29192e-05
32 *144:A *21:25 9.21347e-06
33 *11:6 *21:73 0.000234104
34 *13:12 *140:C 0.000100803
35 *15:12 *150:A2 1.37349e-05
36 *20:14 *21:12 7.88828e-05
37 *20:14 *21:16 0.000155729
38 *20:14 *21:62 0.000227417
39 *20:27 *141:A 0
40 *20:27 *21:62 0.00012377
41 *20:27 *21:73 5.70419e-05
*RES
1 *152:X *21:8 40.61 
2 *21:8 *21:12 18.9564 
3 *21:12 *21:16 22.8921 
4 *21:16 *144:C 38 
5 *21:16 *21:25 2.96214 
6 *21:25 *21:31 21.7114 
7 *21:31 *143:A 24.1186 
8 *21:31 *145:B 25.2216 
9 *21:25 *150:A2 38.8493 
10 *21:12 *21:62 6.815 
11 *21:62 *139:A1_N 23 
12 *21:62 *21:73 21.2661 
13 *21:73 *141:A 38.3211 
14 *21:73 *140:C 40.8689 
*END

*D_NET *22 0.00506992
*CONN
*I *138:A I *D sky130_fd_sc_hd__inv_2
*I *145:A_N I *D sky130_fd_sc_hd__nand2b_1
*I *140:B I *D sky130_fd_sc_hd__or4_1
*I *141:D_N I *D sky130_fd_sc_hd__or4bb_1
*I *139:B2 I *D sky130_fd_sc_hd__a2bb2o_1
*I *144:B I *D sky130_fd_sc_hd__and4_1
*I *153:X O *D sky130_fd_sc_hd__buf_1
*CAP
1 *138:A 0.000220728
2 *145:A_N 0
3 *140:B 0.000189822
4 *141:D_N 2.0995e-05
5 *139:B2 0
6 *144:B 0
7 *153:X 0.000328769
8 *22:58 0.00045074
9 *22:36 0.000250827
10 *22:29 0.000223461
11 *22:21 0.00053615
12 *22:17 0.000864448
13 *22:8 0.000690525
14 *138:A *143:B 0.00016352
15 *140:B *141:B 8.16277e-05
16 *22:21 *23:45 6.25829e-05
17 *22:29 *139:A2_N 4.48671e-05
18 *22:29 *140:D 1.94812e-05
19 *22:29 *141:B 2.02872e-05
20 *22:29 *23:41 7.59794e-05
21 *22:29 *23:45 2.82307e-05
22 *22:36 *140:D 2.80394e-05
23 *22:36 *141:B 7.88926e-05
24 *140:A *140:B 0.000102497
25 *140:A *141:D_N 1.14154e-05
26 *140:A *22:36 2.93845e-05
27 *140:C *140:B 2.18286e-05
28 *143:A *138:A 6.26126e-05
29 *145:B *138:A 3.32563e-05
30 *148:A1 *22:58 0
31 *150:A1 *138:A 6.07084e-05
32 *13:12 *140:B 5.73288e-05
33 *15:12 *22:17 3.22879e-05
34 *15:19 *22:17 0.000269381
35 *16:12 *22:58 0
36 *21:16 *22:29 0
37 *21:31 *138:A 9.24795e-06
*RES
1 *153:X *22:8 27.4536 
2 *22:8 *144:B 23 
3 *22:8 *22:17 22.2914 
4 *22:17 *22:21 20.075 
5 *22:21 *22:29 35.0129 
6 *22:29 *139:B2 23 
7 *22:21 *22:36 1.57429 
8 *22:36 *141:D_N 23.4971 
9 *22:36 *140:B 27.4743 
10 *22:17 *22:58 18.6664 
11 *22:58 *145:A_N 23 
12 *22:58 *138:A 29.0486 
*END

*D_NET *23 0.00641099
*CONN
*I *141:B I *D sky130_fd_sc_hd__or4bb_1
*I *140:D I *D sky130_fd_sc_hd__or4_1
*I *139:A2_N I *D sky130_fd_sc_hd__a2bb2o_1
*I *143:B I *D sky130_fd_sc_hd__nand2_1
*I *150:A3 I *D sky130_fd_sc_hd__a31o_1
*I *144:D I *D sky130_fd_sc_hd__and4_1
*I *154:X O *D sky130_fd_sc_hd__buf_1
*CAP
1 *141:B 0.000233828
2 *140:D 0.000375177
3 *139:A2_N 8.31294e-05
4 *143:B 0.00011854
5 *150:A3 8.86443e-05
6 *144:D 0
7 *154:X 0.000394862
8 *23:45 0.000523097
9 *23:41 0.000728643
10 *23:21 0.0003079
11 *23:10 0.000257609
12 *23:6 0.00098178
13 *150:A3 *158:A 5.90675e-06
14 *138:A *143:B 0.00016352
15 *140:A *140:D 0.000328184
16 *140:B *141:B 8.16277e-05
17 *140:C *23:45 0
18 *143:A *143:B 2.77232e-05
19 *150:A1 *143:B 4.39607e-05
20 *150:A1 *150:A3 3.7122e-06
21 *150:A2 *23:21 3.47781e-05
22 *15:12 *23:21 0.000166504
23 *20:27 *139:A2_N 3.31683e-05
24 *20:27 *23:45 2.22183e-05
25 *21:16 *23:10 0.000302339
26 *21:25 *23:10 1.14452e-05
27 *21:25 *23:21 0.000210659
28 *21:31 *143:B 0.000470374
29 *21:31 *150:A3 5.3304e-05
30 *21:73 *139:A2_N 0
31 *22:21 *23:45 6.25829e-05
32 *22:29 *139:A2_N 4.48671e-05
33 *22:29 *140:D 1.94812e-05
34 *22:29 *141:B 2.02872e-05
35 *22:29 *23:41 7.59794e-05
36 *22:29 *23:45 2.82307e-05
37 *22:36 *140:D 2.80394e-05
38 *22:36 *141:B 7.88926e-05
*RES
1 *154:X *23:6 27.9093 
2 *23:6 *23:10 19.0186 
3 *23:10 *144:D 38 
4 *23:10 *23:21 18.3143 
5 *23:21 *150:A3 24.595 
6 *23:21 *143:B 28.7586 
7 *23:6 *23:41 5.86214 
8 *23:41 *23:45 16.9057 
9 *23:45 *139:A2_N 39.9057 
10 *23:45 *140:D 43.8829 
11 *23:41 *141:B 26.48 
*END

*D_NET *24 0.000865243
*CONN
*I *155:A I *D sky130_fd_sc_hd__buf_2
*I *142:X O *D sky130_fd_sc_hd__and3_1
*CAP
1 *155:A 0
2 *142:X 0.000432622
3 *24:8 0.000432622
*RES
1 *142:X *24:8 31.1407 
2 *24:8 *155:A 23 
*END

*D_NET *25 0.00117877
*CONN
*I *156:A I *D sky130_fd_sc_hd__buf_2
*I *147:X O *D sky130_fd_sc_hd__and3_1
*CAP
1 *156:A 0
2 *147:X 0.000583014
3 *25:10 0.000583014
4 P[1] *25:10 1.27424e-05
*RES
1 *147:X *25:10 46.2443 
2 *25:10 *156:A 38 
*END

*D_NET *26 0.00049315
*CONN
*I *157:A I *D sky130_fd_sc_hd__buf_2
*I *149:Y O *D sky130_fd_sc_hd__a21oi_1
*CAP
1 *157:A 0.000118858
2 *149:Y 0.000127718
3 *26:8 0.000246575
*RES
1 *149:Y *26:8 40.2579 
2 *26:8 *157:A 40.0507 
*END

*D_NET *27 0.000320824
*CONN
*I *158:A I *D sky130_fd_sc_hd__buf_2
*I *150:X O *D sky130_fd_sc_hd__a31o_1
*CAP
1 *158:A 0.000157458
2 *150:X 0.000157458
3 *150:A1 *158:A 0
4 *150:A3 *158:A 5.90675e-06
*RES
1 *150:X *158:A 49.0243 
*END
