*SPEF "ieee 1481-1999"
*DESIGN "SARSANPASOS_VENTAJA_RUIDO_e8"
*DATE "11:25:36 Friday September 12, 2025"
*VENDOR "The OpenROAD Project"
*PROGRAM "OpenROAD"
*VERSION "edf00dff99f6c40d67a30c0e22a8191c5d2ed9d6"
*DESIGN_FLOW "NAME_SCOPE LOCAL" "PIN_CAP NONE"
*DIVIDER /
*DELIMITER :
*BUS_DELIMITER []
*T_UNIT 1 NS
*C_UNIT 1 PF
*R_UNIT 1 OHM
*L_UNIT 1 HENRY

*NAME_MAP
*1 A[0]
*2 A[1]
*3 B[0]
*4 B[1]
*5 P[0]
*6 P[1]
*7 P[2]
*8 P[3]
*11 _0_
*12 _1_
*13 net1
*14 net2
*15 net3
*16 net4
*17 net5
*18 net6
*19 net7
*20 net8
*21 ANTENNA_1
*22 FILLER_0_109
*23 FILLER_0_113
*24 FILLER_0_125
*25 FILLER_0_137
*26 FILLER_0_141
*27 FILLER_0_15
*28 FILLER_0_153
*29 FILLER_0_165
*30 FILLER_0_169
*31 FILLER_0_181
*32 FILLER_0_193
*33 FILLER_0_197
*34 FILLER_0_209
*35 FILLER_0_221
*36 FILLER_0_225
*37 FILLER_0_237
*38 FILLER_0_249
*39 FILLER_0_253
*40 FILLER_0_265
*41 FILLER_0_27
*42 FILLER_0_277
*43 FILLER_0_281
*44 FILLER_0_29
*45 FILLER_0_293
*46 FILLER_0_3
*47 FILLER_0_305
*48 FILLER_0_309
*49 FILLER_0_321
*50 FILLER_0_333
*51 FILLER_0_337
*52 FILLER_0_349
*53 FILLER_0_361
*54 FILLER_0_365
*55 FILLER_0_377
*56 FILLER_0_389
*57 FILLER_0_393
*58 FILLER_0_405
*59 FILLER_0_41
*60 FILLER_0_53
*61 FILLER_0_57
*62 FILLER_0_69
*63 FILLER_0_81
*64 FILLER_0_85
*65 FILLER_0_97
*66 FILLER_10_109
*67 FILLER_10_121
*68 FILLER_10_133
*69 FILLER_10_139
*70 FILLER_10_141
*71 FILLER_10_15
*72 FILLER_10_153
*73 FILLER_10_165
*74 FILLER_10_177
*75 FILLER_10_189
*76 FILLER_10_195
*77 FILLER_10_197
*78 FILLER_10_209
*79 FILLER_10_221
*80 FILLER_10_233
*81 FILLER_10_245
*82 FILLER_10_251
*83 FILLER_10_253
*84 FILLER_10_265
*85 FILLER_10_27
*86 FILLER_10_277
*87 FILLER_10_289
*88 FILLER_10_29
*89 FILLER_10_3
*90 FILLER_10_301
*91 FILLER_10_307
*92 FILLER_10_309
*93 FILLER_10_321
*94 FILLER_10_333
*95 FILLER_10_345
*96 FILLER_10_357
*97 FILLER_10_363
*98 FILLER_10_365
*99 FILLER_10_377
*100 FILLER_10_389
*101 FILLER_10_401
*102 FILLER_10_41
*103 FILLER_10_53
*104 FILLER_10_65
*105 FILLER_10_77
*106 FILLER_10_83
*107 FILLER_10_85
*108 FILLER_10_97
*109 FILLER_11_105
*110 FILLER_11_111
*111 FILLER_11_113
*112 FILLER_11_125
*113 FILLER_11_137
*114 FILLER_11_149
*115 FILLER_11_15
*116 FILLER_11_161
*117 FILLER_11_167
*118 FILLER_11_169
*119 FILLER_11_181
*120 FILLER_11_193
*121 FILLER_11_205
*122 FILLER_11_217
*123 FILLER_11_223
*124 FILLER_11_225
*125 FILLER_11_237
*126 FILLER_11_249
*127 FILLER_11_261
*128 FILLER_11_27
*129 FILLER_11_273
*130 FILLER_11_279
*131 FILLER_11_281
*132 FILLER_11_293
*133 FILLER_11_3
*134 FILLER_11_305
*135 FILLER_11_317
*136 FILLER_11_329
*137 FILLER_11_335
*138 FILLER_11_337
*139 FILLER_11_349
*140 FILLER_11_361
*141 FILLER_11_373
*142 FILLER_11_385
*143 FILLER_11_39
*144 FILLER_11_391
*145 FILLER_11_393
*146 FILLER_11_405
*147 FILLER_11_51
*148 FILLER_11_55
*149 FILLER_11_57
*150 FILLER_11_69
*151 FILLER_11_81
*152 FILLER_11_93
*153 FILLER_12_109
*154 FILLER_12_121
*155 FILLER_12_133
*156 FILLER_12_139
*157 FILLER_12_141
*158 FILLER_12_15
*159 FILLER_12_153
*160 FILLER_12_165
*161 FILLER_12_177
*162 FILLER_12_189
*163 FILLER_12_195
*164 FILLER_12_197
*165 FILLER_12_209
*166 FILLER_12_221
*167 FILLER_12_233
*168 FILLER_12_245
*169 FILLER_12_251
*170 FILLER_12_253
*171 FILLER_12_265
*172 FILLER_12_27
*173 FILLER_12_277
*174 FILLER_12_289
*175 FILLER_12_29
*176 FILLER_12_3
*177 FILLER_12_301
*178 FILLER_12_307
*179 FILLER_12_309
*180 FILLER_12_321
*181 FILLER_12_333
*182 FILLER_12_345
*183 FILLER_12_357
*184 FILLER_12_363
*185 FILLER_12_365
*186 FILLER_12_377
*187 FILLER_12_389
*188 FILLER_12_401
*189 FILLER_12_41
*190 FILLER_12_53
*191 FILLER_12_65
*192 FILLER_12_77
*193 FILLER_12_83
*194 FILLER_12_85
*195 FILLER_12_97
*196 FILLER_13_105
*197 FILLER_13_111
*198 FILLER_13_113
*199 FILLER_13_125
*200 FILLER_13_137
*201 FILLER_13_149
*202 FILLER_13_15
*203 FILLER_13_161
*204 FILLER_13_167
*205 FILLER_13_169
*206 FILLER_13_181
*207 FILLER_13_193
*208 FILLER_13_205
*209 FILLER_13_217
*210 FILLER_13_223
*211 FILLER_13_225
*212 FILLER_13_237
*213 FILLER_13_249
*214 FILLER_13_261
*215 FILLER_13_27
*216 FILLER_13_273
*217 FILLER_13_279
*218 FILLER_13_281
*219 FILLER_13_293
*220 FILLER_13_3
*221 FILLER_13_305
*222 FILLER_13_317
*223 FILLER_13_329
*224 FILLER_13_335
*225 FILLER_13_337
*226 FILLER_13_349
*227 FILLER_13_361
*228 FILLER_13_373
*229 FILLER_13_385
*230 FILLER_13_39
*231 FILLER_13_391
*232 FILLER_13_393
*233 FILLER_13_405
*234 FILLER_13_51
*235 FILLER_13_55
*236 FILLER_13_57
*237 FILLER_13_69
*238 FILLER_13_81
*239 FILLER_13_93
*240 FILLER_14_109
*241 FILLER_14_121
*242 FILLER_14_133
*243 FILLER_14_139
*244 FILLER_14_141
*245 FILLER_14_15
*246 FILLER_14_153
*247 FILLER_14_165
*248 FILLER_14_177
*249 FILLER_14_189
*250 FILLER_14_195
*251 FILLER_14_197
*252 FILLER_14_209
*253 FILLER_14_221
*254 FILLER_14_233
*255 FILLER_14_245
*256 FILLER_14_251
*257 FILLER_14_253
*258 FILLER_14_265
*259 FILLER_14_27
*260 FILLER_14_277
*261 FILLER_14_289
*262 FILLER_14_29
*263 FILLER_14_3
*264 FILLER_14_301
*265 FILLER_14_307
*266 FILLER_14_309
*267 FILLER_14_321
*268 FILLER_14_333
*269 FILLER_14_345
*270 FILLER_14_357
*271 FILLER_14_363
*272 FILLER_14_365
*273 FILLER_14_377
*274 FILLER_14_389
*275 FILLER_14_401
*276 FILLER_14_41
*277 FILLER_14_53
*278 FILLER_14_65
*279 FILLER_14_77
*280 FILLER_14_83
*281 FILLER_14_85
*282 FILLER_14_97
*283 FILLER_15_105
*284 FILLER_15_111
*285 FILLER_15_113
*286 FILLER_15_125
*287 FILLER_15_137
*288 FILLER_15_149
*289 FILLER_15_15
*290 FILLER_15_161
*291 FILLER_15_167
*292 FILLER_15_169
*293 FILLER_15_181
*294 FILLER_15_193
*295 FILLER_15_205
*296 FILLER_15_217
*297 FILLER_15_223
*298 FILLER_15_225
*299 FILLER_15_237
*300 FILLER_15_249
*301 FILLER_15_261
*302 FILLER_15_27
*303 FILLER_15_273
*304 FILLER_15_279
*305 FILLER_15_281
*306 FILLER_15_293
*307 FILLER_15_3
*308 FILLER_15_305
*309 FILLER_15_317
*310 FILLER_15_329
*311 FILLER_15_335
*312 FILLER_15_337
*313 FILLER_15_349
*314 FILLER_15_361
*315 FILLER_15_373
*316 FILLER_15_385
*317 FILLER_15_39
*318 FILLER_15_391
*319 FILLER_15_393
*320 FILLER_15_405
*321 FILLER_15_51
*322 FILLER_15_55
*323 FILLER_15_57
*324 FILLER_15_69
*325 FILLER_15_81
*326 FILLER_15_93
*327 FILLER_16_109
*328 FILLER_16_121
*329 FILLER_16_133
*330 FILLER_16_139
*331 FILLER_16_141
*332 FILLER_16_15
*333 FILLER_16_153
*334 FILLER_16_165
*335 FILLER_16_177
*336 FILLER_16_189
*337 FILLER_16_195
*338 FILLER_16_197
*339 FILLER_16_209
*340 FILLER_16_221
*341 FILLER_16_233
*342 FILLER_16_245
*343 FILLER_16_251
*344 FILLER_16_253
*345 FILLER_16_265
*346 FILLER_16_27
*347 FILLER_16_277
*348 FILLER_16_289
*349 FILLER_16_29
*350 FILLER_16_3
*351 FILLER_16_301
*352 FILLER_16_307
*353 FILLER_16_309
*354 FILLER_16_321
*355 FILLER_16_333
*356 FILLER_16_345
*357 FILLER_16_357
*358 FILLER_16_363
*359 FILLER_16_365
*360 FILLER_16_377
*361 FILLER_16_389
*362 FILLER_16_401
*363 FILLER_16_41
*364 FILLER_16_53
*365 FILLER_16_65
*366 FILLER_16_77
*367 FILLER_16_83
*368 FILLER_16_85
*369 FILLER_16_97
*370 FILLER_17_105
*371 FILLER_17_111
*372 FILLER_17_113
*373 FILLER_17_125
*374 FILLER_17_137
*375 FILLER_17_149
*376 FILLER_17_15
*377 FILLER_17_161
*378 FILLER_17_167
*379 FILLER_17_169
*380 FILLER_17_181
*381 FILLER_17_193
*382 FILLER_17_205
*383 FILLER_17_217
*384 FILLER_17_223
*385 FILLER_17_225
*386 FILLER_17_237
*387 FILLER_17_249
*388 FILLER_17_261
*389 FILLER_17_27
*390 FILLER_17_273
*391 FILLER_17_279
*392 FILLER_17_281
*393 FILLER_17_293
*394 FILLER_17_3
*395 FILLER_17_305
*396 FILLER_17_317
*397 FILLER_17_329
*398 FILLER_17_335
*399 FILLER_17_337
*400 FILLER_17_349
*401 FILLER_17_361
*402 FILLER_17_373
*403 FILLER_17_385
*404 FILLER_17_39
*405 FILLER_17_391
*406 FILLER_17_393
*407 FILLER_17_405
*408 FILLER_17_51
*409 FILLER_17_55
*410 FILLER_17_57
*411 FILLER_17_69
*412 FILLER_17_81
*413 FILLER_17_93
*414 FILLER_18_109
*415 FILLER_18_121
*416 FILLER_18_133
*417 FILLER_18_139
*418 FILLER_18_141
*419 FILLER_18_15
*420 FILLER_18_153
*421 FILLER_18_165
*422 FILLER_18_177
*423 FILLER_18_189
*424 FILLER_18_195
*425 FILLER_18_197
*426 FILLER_18_209
*427 FILLER_18_221
*428 FILLER_18_233
*429 FILLER_18_245
*430 FILLER_18_251
*431 FILLER_18_253
*432 FILLER_18_265
*433 FILLER_18_27
*434 FILLER_18_277
*435 FILLER_18_289
*436 FILLER_18_29
*437 FILLER_18_3
*438 FILLER_18_301
*439 FILLER_18_307
*440 FILLER_18_309
*441 FILLER_18_321
*442 FILLER_18_333
*443 FILLER_18_345
*444 FILLER_18_357
*445 FILLER_18_363
*446 FILLER_18_365
*447 FILLER_18_377
*448 FILLER_18_389
*449 FILLER_18_401
*450 FILLER_18_41
*451 FILLER_18_53
*452 FILLER_18_65
*453 FILLER_18_77
*454 FILLER_18_83
*455 FILLER_18_85
*456 FILLER_18_97
*457 FILLER_19_105
*458 FILLER_19_111
*459 FILLER_19_113
*460 FILLER_19_125
*461 FILLER_19_137
*462 FILLER_19_149
*463 FILLER_19_15
*464 FILLER_19_161
*465 FILLER_19_167
*466 FILLER_19_169
*467 FILLER_19_181
*468 FILLER_19_193
*469 FILLER_19_205
*470 FILLER_19_217
*471 FILLER_19_223
*472 FILLER_19_225
*473 FILLER_19_237
*474 FILLER_19_249
*475 FILLER_19_261
*476 FILLER_19_27
*477 FILLER_19_273
*478 FILLER_19_279
*479 FILLER_19_281
*480 FILLER_19_293
*481 FILLER_19_3
*482 FILLER_19_305
*483 FILLER_19_317
*484 FILLER_19_329
*485 FILLER_19_335
*486 FILLER_19_337
*487 FILLER_19_349
*488 FILLER_19_361
*489 FILLER_19_373
*490 FILLER_19_385
*491 FILLER_19_39
*492 FILLER_19_391
*493 FILLER_19_393
*494 FILLER_19_405
*495 FILLER_19_51
*496 FILLER_19_55
*497 FILLER_19_57
*498 FILLER_19_69
*499 FILLER_19_81
*500 FILLER_19_93
*501 FILLER_1_105
*502 FILLER_1_111
*503 FILLER_1_113
*504 FILLER_1_125
*505 FILLER_1_137
*506 FILLER_1_149
*507 FILLER_1_15
*508 FILLER_1_161
*509 FILLER_1_167
*510 FILLER_1_169
*511 FILLER_1_181
*512 FILLER_1_193
*513 FILLER_1_205
*514 FILLER_1_217
*515 FILLER_1_223
*516 FILLER_1_225
*517 FILLER_1_237
*518 FILLER_1_249
*519 FILLER_1_261
*520 FILLER_1_27
*521 FILLER_1_273
*522 FILLER_1_279
*523 FILLER_1_281
*524 FILLER_1_293
*525 FILLER_1_3
*526 FILLER_1_305
*527 FILLER_1_317
*528 FILLER_1_329
*529 FILLER_1_335
*530 FILLER_1_337
*531 FILLER_1_349
*532 FILLER_1_361
*533 FILLER_1_373
*534 FILLER_1_385
*535 FILLER_1_39
*536 FILLER_1_391
*537 FILLER_1_393
*538 FILLER_1_405
*539 FILLER_1_51
*540 FILLER_1_55
*541 FILLER_1_57
*542 FILLER_1_69
*543 FILLER_1_81
*544 FILLER_1_93
*545 FILLER_20_109
*546 FILLER_20_121
*547 FILLER_20_133
*548 FILLER_20_139
*549 FILLER_20_141
*550 FILLER_20_15
*551 FILLER_20_153
*552 FILLER_20_165
*553 FILLER_20_177
*554 FILLER_20_189
*555 FILLER_20_195
*556 FILLER_20_197
*557 FILLER_20_209
*558 FILLER_20_221
*559 FILLER_20_233
*560 FILLER_20_245
*561 FILLER_20_251
*562 FILLER_20_253
*563 FILLER_20_265
*564 FILLER_20_27
*565 FILLER_20_277
*566 FILLER_20_289
*567 FILLER_20_29
*568 FILLER_20_3
*569 FILLER_20_301
*570 FILLER_20_307
*571 FILLER_20_309
*572 FILLER_20_321
*573 FILLER_20_333
*574 FILLER_20_345
*575 FILLER_20_357
*576 FILLER_20_363
*577 FILLER_20_365
*578 FILLER_20_377
*579 FILLER_20_389
*580 FILLER_20_401
*581 FILLER_20_41
*582 FILLER_20_53
*583 FILLER_20_65
*584 FILLER_20_77
*585 FILLER_20_83
*586 FILLER_20_85
*587 FILLER_20_97
*588 FILLER_21_105
*589 FILLER_21_111
*590 FILLER_21_113
*591 FILLER_21_125
*592 FILLER_21_137
*593 FILLER_21_149
*594 FILLER_21_15
*595 FILLER_21_161
*596 FILLER_21_167
*597 FILLER_21_169
*598 FILLER_21_181
*599 FILLER_21_193
*600 FILLER_21_205
*601 FILLER_21_217
*602 FILLER_21_223
*603 FILLER_21_225
*604 FILLER_21_237
*605 FILLER_21_249
*606 FILLER_21_261
*607 FILLER_21_27
*608 FILLER_21_273
*609 FILLER_21_279
*610 FILLER_21_281
*611 FILLER_21_293
*612 FILLER_21_3
*613 FILLER_21_305
*614 FILLER_21_317
*615 FILLER_21_329
*616 FILLER_21_335
*617 FILLER_21_337
*618 FILLER_21_349
*619 FILLER_21_361
*620 FILLER_21_373
*621 FILLER_21_385
*622 FILLER_21_39
*623 FILLER_21_391
*624 FILLER_21_393
*625 FILLER_21_405
*626 FILLER_21_51
*627 FILLER_21_55
*628 FILLER_21_57
*629 FILLER_21_69
*630 FILLER_21_81
*631 FILLER_21_93
*632 FILLER_22_109
*633 FILLER_22_121
*634 FILLER_22_133
*635 FILLER_22_139
*636 FILLER_22_141
*637 FILLER_22_15
*638 FILLER_22_153
*639 FILLER_22_165
*640 FILLER_22_177
*641 FILLER_22_189
*642 FILLER_22_195
*643 FILLER_22_197
*644 FILLER_22_209
*645 FILLER_22_221
*646 FILLER_22_233
*647 FILLER_22_245
*648 FILLER_22_251
*649 FILLER_22_253
*650 FILLER_22_265
*651 FILLER_22_27
*652 FILLER_22_277
*653 FILLER_22_289
*654 FILLER_22_29
*655 FILLER_22_3
*656 FILLER_22_301
*657 FILLER_22_307
*658 FILLER_22_309
*659 FILLER_22_321
*660 FILLER_22_333
*661 FILLER_22_345
*662 FILLER_22_357
*663 FILLER_22_363
*664 FILLER_22_365
*665 FILLER_22_377
*666 FILLER_22_389
*667 FILLER_22_401
*668 FILLER_22_41
*669 FILLER_22_53
*670 FILLER_22_65
*671 FILLER_22_77
*672 FILLER_22_83
*673 FILLER_22_85
*674 FILLER_22_97
*675 FILLER_23_105
*676 FILLER_23_111
*677 FILLER_23_113
*678 FILLER_23_125
*679 FILLER_23_137
*680 FILLER_23_149
*681 FILLER_23_15
*682 FILLER_23_161
*683 FILLER_23_167
*684 FILLER_23_169
*685 FILLER_23_181
*686 FILLER_23_193
*687 FILLER_23_205
*688 FILLER_23_217
*689 FILLER_23_223
*690 FILLER_23_225
*691 FILLER_23_237
*692 FILLER_23_249
*693 FILLER_23_261
*694 FILLER_23_27
*695 FILLER_23_273
*696 FILLER_23_279
*697 FILLER_23_281
*698 FILLER_23_293
*699 FILLER_23_3
*700 FILLER_23_305
*701 FILLER_23_317
*702 FILLER_23_329
*703 FILLER_23_335
*704 FILLER_23_337
*705 FILLER_23_349
*706 FILLER_23_361
*707 FILLER_23_373
*708 FILLER_23_385
*709 FILLER_23_39
*710 FILLER_23_391
*711 FILLER_23_393
*712 FILLER_23_405
*713 FILLER_23_51
*714 FILLER_23_55
*715 FILLER_23_57
*716 FILLER_23_69
*717 FILLER_23_81
*718 FILLER_23_93
*719 FILLER_24_109
*720 FILLER_24_121
*721 FILLER_24_133
*722 FILLER_24_139
*723 FILLER_24_141
*724 FILLER_24_15
*725 FILLER_24_153
*726 FILLER_24_165
*727 FILLER_24_177
*728 FILLER_24_189
*729 FILLER_24_195
*730 FILLER_24_197
*731 FILLER_24_209
*732 FILLER_24_221
*733 FILLER_24_233
*734 FILLER_24_245
*735 FILLER_24_251
*736 FILLER_24_253
*737 FILLER_24_265
*738 FILLER_24_27
*739 FILLER_24_277
*740 FILLER_24_289
*741 FILLER_24_29
*742 FILLER_24_3
*743 FILLER_24_301
*744 FILLER_24_307
*745 FILLER_24_309
*746 FILLER_24_321
*747 FILLER_24_333
*748 FILLER_24_345
*749 FILLER_24_357
*750 FILLER_24_363
*751 FILLER_24_365
*752 FILLER_24_377
*753 FILLER_24_389
*754 FILLER_24_401
*755 FILLER_24_41
*756 FILLER_24_53
*757 FILLER_24_65
*758 FILLER_24_77
*759 FILLER_24_83
*760 FILLER_24_85
*761 FILLER_24_97
*762 FILLER_25_105
*763 FILLER_25_111
*764 FILLER_25_113
*765 FILLER_25_125
*766 FILLER_25_137
*767 FILLER_25_149
*768 FILLER_25_15
*769 FILLER_25_161
*770 FILLER_25_167
*771 FILLER_25_169
*772 FILLER_25_181
*773 FILLER_25_193
*774 FILLER_25_205
*775 FILLER_25_217
*776 FILLER_25_223
*777 FILLER_25_225
*778 FILLER_25_237
*779 FILLER_25_249
*780 FILLER_25_261
*781 FILLER_25_27
*782 FILLER_25_273
*783 FILLER_25_279
*784 FILLER_25_281
*785 FILLER_25_293
*786 FILLER_25_3
*787 FILLER_25_305
*788 FILLER_25_317
*789 FILLER_25_329
*790 FILLER_25_335
*791 FILLER_25_337
*792 FILLER_25_349
*793 FILLER_25_361
*794 FILLER_25_373
*795 FILLER_25_385
*796 FILLER_25_39
*797 FILLER_25_391
*798 FILLER_25_393
*799 FILLER_25_405
*800 FILLER_25_51
*801 FILLER_25_55
*802 FILLER_25_57
*803 FILLER_25_69
*804 FILLER_25_81
*805 FILLER_25_93
*806 FILLER_26_109
*807 FILLER_26_121
*808 FILLER_26_133
*809 FILLER_26_139
*810 FILLER_26_141
*811 FILLER_26_15
*812 FILLER_26_153
*813 FILLER_26_165
*814 FILLER_26_177
*815 FILLER_26_189
*816 FILLER_26_195
*817 FILLER_26_197
*818 FILLER_26_209
*819 FILLER_26_221
*820 FILLER_26_233
*821 FILLER_26_245
*822 FILLER_26_251
*823 FILLER_26_253
*824 FILLER_26_265
*825 FILLER_26_27
*826 FILLER_26_277
*827 FILLER_26_289
*828 FILLER_26_29
*829 FILLER_26_3
*830 FILLER_26_301
*831 FILLER_26_307
*832 FILLER_26_309
*833 FILLER_26_321
*834 FILLER_26_333
*835 FILLER_26_345
*836 FILLER_26_357
*837 FILLER_26_363
*838 FILLER_26_365
*839 FILLER_26_377
*840 FILLER_26_389
*841 FILLER_26_401
*842 FILLER_26_41
*843 FILLER_26_53
*844 FILLER_26_65
*845 FILLER_26_77
*846 FILLER_26_83
*847 FILLER_26_85
*848 FILLER_26_97
*849 FILLER_27_105
*850 FILLER_27_111
*851 FILLER_27_113
*852 FILLER_27_125
*853 FILLER_27_137
*854 FILLER_27_149
*855 FILLER_27_15
*856 FILLER_27_161
*857 FILLER_27_167
*858 FILLER_27_169
*859 FILLER_27_181
*860 FILLER_27_193
*861 FILLER_27_205
*862 FILLER_27_217
*863 FILLER_27_223
*864 FILLER_27_225
*865 FILLER_27_237
*866 FILLER_27_249
*867 FILLER_27_261
*868 FILLER_27_27
*869 FILLER_27_273
*870 FILLER_27_279
*871 FILLER_27_281
*872 FILLER_27_293
*873 FILLER_27_3
*874 FILLER_27_305
*875 FILLER_27_317
*876 FILLER_27_329
*877 FILLER_27_335
*878 FILLER_27_337
*879 FILLER_27_349
*880 FILLER_27_361
*881 FILLER_27_373
*882 FILLER_27_385
*883 FILLER_27_39
*884 FILLER_27_391
*885 FILLER_27_393
*886 FILLER_27_405
*887 FILLER_27_51
*888 FILLER_27_55
*889 FILLER_27_57
*890 FILLER_27_69
*891 FILLER_27_81
*892 FILLER_27_93
*893 FILLER_28_109
*894 FILLER_28_121
*895 FILLER_28_133
*896 FILLER_28_139
*897 FILLER_28_141
*898 FILLER_28_15
*899 FILLER_28_153
*900 FILLER_28_165
*901 FILLER_28_177
*902 FILLER_28_189
*903 FILLER_28_195
*904 FILLER_28_197
*905 FILLER_28_209
*906 FILLER_28_221
*907 FILLER_28_233
*908 FILLER_28_245
*909 FILLER_28_251
*910 FILLER_28_253
*911 FILLER_28_265
*912 FILLER_28_27
*913 FILLER_28_277
*914 FILLER_28_289
*915 FILLER_28_29
*916 FILLER_28_3
*917 FILLER_28_301
*918 FILLER_28_307
*919 FILLER_28_309
*920 FILLER_28_321
*921 FILLER_28_333
*922 FILLER_28_345
*923 FILLER_28_357
*924 FILLER_28_363
*925 FILLER_28_365
*926 FILLER_28_377
*927 FILLER_28_389
*928 FILLER_28_401
*929 FILLER_28_41
*930 FILLER_28_53
*931 FILLER_28_65
*932 FILLER_28_77
*933 FILLER_28_83
*934 FILLER_28_85
*935 FILLER_28_97
*936 FILLER_29_105
*937 FILLER_29_111
*938 FILLER_29_113
*939 FILLER_29_125
*940 FILLER_29_137
*941 FILLER_29_149
*942 FILLER_29_15
*943 FILLER_29_161
*944 FILLER_29_167
*945 FILLER_29_169
*946 FILLER_29_181
*947 FILLER_29_193
*948 FILLER_29_205
*949 FILLER_29_217
*950 FILLER_29_223
*951 FILLER_29_225
*952 FILLER_29_237
*953 FILLER_29_249
*954 FILLER_29_261
*955 FILLER_29_27
*956 FILLER_29_273
*957 FILLER_29_279
*958 FILLER_29_281
*959 FILLER_29_293
*960 FILLER_29_3
*961 FILLER_29_305
*962 FILLER_29_317
*963 FILLER_29_329
*964 FILLER_29_335
*965 FILLER_29_337
*966 FILLER_29_349
*967 FILLER_29_361
*968 FILLER_29_373
*969 FILLER_29_385
*970 FILLER_29_39
*971 FILLER_29_391
*972 FILLER_29_393
*973 FILLER_29_405
*974 FILLER_29_51
*975 FILLER_29_55
*976 FILLER_29_57
*977 FILLER_29_69
*978 FILLER_29_81
*979 FILLER_29_93
*980 FILLER_2_109
*981 FILLER_2_121
*982 FILLER_2_133
*983 FILLER_2_139
*984 FILLER_2_141
*985 FILLER_2_15
*986 FILLER_2_153
*987 FILLER_2_165
*988 FILLER_2_177
*989 FILLER_2_189
*990 FILLER_2_195
*991 FILLER_2_197
*992 FILLER_2_209
*993 FILLER_2_221
*994 FILLER_2_233
*995 FILLER_2_245
*996 FILLER_2_251
*997 FILLER_2_253
*998 FILLER_2_265
*999 FILLER_2_27
*1000 FILLER_2_277
*1001 FILLER_2_289
*1002 FILLER_2_29
*1003 FILLER_2_3
*1004 FILLER_2_301
*1005 FILLER_2_307
*1006 FILLER_2_309
*1007 FILLER_2_321
*1008 FILLER_2_333
*1009 FILLER_2_345
*1010 FILLER_2_357
*1011 FILLER_2_363
*1012 FILLER_2_365
*1013 FILLER_2_377
*1014 FILLER_2_389
*1015 FILLER_2_401
*1016 FILLER_2_41
*1017 FILLER_2_53
*1018 FILLER_2_65
*1019 FILLER_2_77
*1020 FILLER_2_83
*1021 FILLER_2_85
*1022 FILLER_2_97
*1023 FILLER_30_109
*1024 FILLER_30_121
*1025 FILLER_30_133
*1026 FILLER_30_139
*1027 FILLER_30_141
*1028 FILLER_30_153
*1029 FILLER_30_165
*1030 FILLER_30_177
*1031 FILLER_30_18
*1032 FILLER_30_189
*1033 FILLER_30_195
*1034 FILLER_30_197
*1035 FILLER_30_209
*1036 FILLER_30_221
*1037 FILLER_30_233
*1038 FILLER_30_245
*1039 FILLER_30_251
*1040 FILLER_30_253
*1041 FILLER_30_26
*1042 FILLER_30_265
*1043 FILLER_30_277
*1044 FILLER_30_289
*1045 FILLER_30_29
*1046 FILLER_30_301
*1047 FILLER_30_307
*1048 FILLER_30_309
*1049 FILLER_30_321
*1050 FILLER_30_333
*1051 FILLER_30_345
*1052 FILLER_30_357
*1053 FILLER_30_363
*1054 FILLER_30_365
*1055 FILLER_30_377
*1056 FILLER_30_389
*1057 FILLER_30_401
*1058 FILLER_30_41
*1059 FILLER_30_53
*1060 FILLER_30_6
*1061 FILLER_30_65
*1062 FILLER_30_77
*1063 FILLER_30_83
*1064 FILLER_30_85
*1065 FILLER_30_97
*1066 FILLER_31_103
*1067 FILLER_31_111
*1068 FILLER_31_113
*1069 FILLER_31_125
*1070 FILLER_31_137
*1071 FILLER_31_149
*1072 FILLER_31_161
*1073 FILLER_31_167
*1074 FILLER_31_169
*1075 FILLER_31_181
*1076 FILLER_31_19
*1077 FILLER_31_193
*1078 FILLER_31_205
*1079 FILLER_31_217
*1080 FILLER_31_223
*1081 FILLER_31_225
*1082 FILLER_31_237
*1083 FILLER_31_249
*1084 FILLER_31_261
*1085 FILLER_31_273
*1086 FILLER_31_279
*1087 FILLER_31_281
*1088 FILLER_31_293
*1089 FILLER_31_305
*1090 FILLER_31_31
*1091 FILLER_31_317
*1092 FILLER_31_329
*1093 FILLER_31_335
*1094 FILLER_31_337
*1095 FILLER_31_349
*1096 FILLER_31_361
*1097 FILLER_31_373
*1098 FILLER_31_385
*1099 FILLER_31_391
*1100 FILLER_31_393
*1101 FILLER_31_401
*1102 FILLER_31_43
*1103 FILLER_31_55
*1104 FILLER_31_67
*1105 FILLER_31_7
*1106 FILLER_31_79
*1107 FILLER_31_91
*1108 FILLER_32_109
*1109 FILLER_32_121
*1110 FILLER_32_133
*1111 FILLER_32_139
*1112 FILLER_32_141
*1113 FILLER_32_153
*1114 FILLER_32_165
*1115 FILLER_32_177
*1116 FILLER_32_189
*1117 FILLER_32_195
*1118 FILLER_32_197
*1119 FILLER_32_209
*1120 FILLER_32_221
*1121 FILLER_32_233
*1122 FILLER_32_245
*1123 FILLER_32_251
*1124 FILLER_32_253
*1125 FILLER_32_265
*1126 FILLER_32_27
*1127 FILLER_32_277
*1128 FILLER_32_289
*1129 FILLER_32_29
*1130 FILLER_32_301
*1131 FILLER_32_307
*1132 FILLER_32_309
*1133 FILLER_32_321
*1134 FILLER_32_333
*1135 FILLER_32_345
*1136 FILLER_32_357
*1137 FILLER_32_363
*1138 FILLER_32_365
*1139 FILLER_32_377
*1140 FILLER_32_389
*1141 FILLER_32_401
*1142 FILLER_32_41
*1143 FILLER_32_53
*1144 FILLER_32_6
*1145 FILLER_32_65
*1146 FILLER_32_77
*1147 FILLER_32_83
*1148 FILLER_32_85
*1149 FILLER_32_97
*1150 FILLER_33_105
*1151 FILLER_33_111
*1152 FILLER_33_113
*1153 FILLER_33_125
*1154 FILLER_33_137
*1155 FILLER_33_149
*1156 FILLER_33_15
*1157 FILLER_33_161
*1158 FILLER_33_167
*1159 FILLER_33_169
*1160 FILLER_33_181
*1161 FILLER_33_193
*1162 FILLER_33_205
*1163 FILLER_33_217
*1164 FILLER_33_223
*1165 FILLER_33_225
*1166 FILLER_33_237
*1167 FILLER_33_249
*1168 FILLER_33_261
*1169 FILLER_33_27
*1170 FILLER_33_273
*1171 FILLER_33_279
*1172 FILLER_33_281
*1173 FILLER_33_293
*1174 FILLER_33_3
*1175 FILLER_33_305
*1176 FILLER_33_317
*1177 FILLER_33_329
*1178 FILLER_33_335
*1179 FILLER_33_337
*1180 FILLER_33_349
*1181 FILLER_33_361
*1182 FILLER_33_373
*1183 FILLER_33_385
*1184 FILLER_33_39
*1185 FILLER_33_391
*1186 FILLER_33_393
*1187 FILLER_33_405
*1188 FILLER_33_51
*1189 FILLER_33_55
*1190 FILLER_33_57
*1191 FILLER_33_69
*1192 FILLER_33_81
*1193 FILLER_33_93
*1194 FILLER_34_109
*1195 FILLER_34_121
*1196 FILLER_34_133
*1197 FILLER_34_139
*1198 FILLER_34_141
*1199 FILLER_34_153
*1200 FILLER_34_165
*1201 FILLER_34_177
*1202 FILLER_34_18
*1203 FILLER_34_189
*1204 FILLER_34_195
*1205 FILLER_34_197
*1206 FILLER_34_209
*1207 FILLER_34_221
*1208 FILLER_34_233
*1209 FILLER_34_245
*1210 FILLER_34_251
*1211 FILLER_34_253
*1212 FILLER_34_26
*1213 FILLER_34_265
*1214 FILLER_34_277
*1215 FILLER_34_289
*1216 FILLER_34_29
*1217 FILLER_34_301
*1218 FILLER_34_307
*1219 FILLER_34_309
*1220 FILLER_34_321
*1221 FILLER_34_333
*1222 FILLER_34_345
*1223 FILLER_34_357
*1224 FILLER_34_363
*1225 FILLER_34_365
*1226 FILLER_34_377
*1227 FILLER_34_389
*1228 FILLER_34_41
*1229 FILLER_34_53
*1230 FILLER_34_6
*1231 FILLER_34_65
*1232 FILLER_34_77
*1233 FILLER_34_83
*1234 FILLER_34_85
*1235 FILLER_34_97
*1236 FILLER_35_105
*1237 FILLER_35_111
*1238 FILLER_35_113
*1239 FILLER_35_125
*1240 FILLER_35_137
*1241 FILLER_35_149
*1242 FILLER_35_161
*1243 FILLER_35_167
*1244 FILLER_35_169
*1245 FILLER_35_18
*1246 FILLER_35_181
*1247 FILLER_35_193
*1248 FILLER_35_205
*1249 FILLER_35_217
*1250 FILLER_35_223
*1251 FILLER_35_225
*1252 FILLER_35_237
*1253 FILLER_35_249
*1254 FILLER_35_261
*1255 FILLER_35_273
*1256 FILLER_35_279
*1257 FILLER_35_281
*1258 FILLER_35_293
*1259 FILLER_35_30
*1260 FILLER_35_305
*1261 FILLER_35_317
*1262 FILLER_35_329
*1263 FILLER_35_335
*1264 FILLER_35_337
*1265 FILLER_35_349
*1266 FILLER_35_361
*1267 FILLER_35_373
*1268 FILLER_35_385
*1269 FILLER_35_391
*1270 FILLER_35_393
*1271 FILLER_35_405
*1272 FILLER_35_42
*1273 FILLER_35_54
*1274 FILLER_35_57
*1275 FILLER_35_6
*1276 FILLER_35_69
*1277 FILLER_35_81
*1278 FILLER_35_93
*1279 FILLER_36_109
*1280 FILLER_36_121
*1281 FILLER_36_133
*1282 FILLER_36_139
*1283 FILLER_36_141
*1284 FILLER_36_15
*1285 FILLER_36_153
*1286 FILLER_36_165
*1287 FILLER_36_177
*1288 FILLER_36_189
*1289 FILLER_36_195
*1290 FILLER_36_197
*1291 FILLER_36_209
*1292 FILLER_36_221
*1293 FILLER_36_233
*1294 FILLER_36_245
*1295 FILLER_36_251
*1296 FILLER_36_253
*1297 FILLER_36_265
*1298 FILLER_36_27
*1299 FILLER_36_277
*1300 FILLER_36_289
*1301 FILLER_36_29
*1302 FILLER_36_3
*1303 FILLER_36_301
*1304 FILLER_36_307
*1305 FILLER_36_309
*1306 FILLER_36_321
*1307 FILLER_36_333
*1308 FILLER_36_345
*1309 FILLER_36_357
*1310 FILLER_36_363
*1311 FILLER_36_365
*1312 FILLER_36_377
*1313 FILLER_36_389
*1314 FILLER_36_401
*1315 FILLER_36_41
*1316 FILLER_36_53
*1317 FILLER_36_65
*1318 FILLER_36_77
*1319 FILLER_36_83
*1320 FILLER_36_85
*1321 FILLER_36_97
*1322 FILLER_37_105
*1323 FILLER_37_111
*1324 FILLER_37_113
*1325 FILLER_37_125
*1326 FILLER_37_137
*1327 FILLER_37_149
*1328 FILLER_37_15
*1329 FILLER_37_161
*1330 FILLER_37_167
*1331 FILLER_37_169
*1332 FILLER_37_181
*1333 FILLER_37_193
*1334 FILLER_37_205
*1335 FILLER_37_217
*1336 FILLER_37_223
*1337 FILLER_37_225
*1338 FILLER_37_237
*1339 FILLER_37_249
*1340 FILLER_37_261
*1341 FILLER_37_27
*1342 FILLER_37_273
*1343 FILLER_37_279
*1344 FILLER_37_281
*1345 FILLER_37_293
*1346 FILLER_37_3
*1347 FILLER_37_305
*1348 FILLER_37_317
*1349 FILLER_37_329
*1350 FILLER_37_335
*1351 FILLER_37_337
*1352 FILLER_37_349
*1353 FILLER_37_361
*1354 FILLER_37_373
*1355 FILLER_37_385
*1356 FILLER_37_39
*1357 FILLER_37_391
*1358 FILLER_37_393
*1359 FILLER_37_405
*1360 FILLER_37_51
*1361 FILLER_37_55
*1362 FILLER_37_57
*1363 FILLER_37_69
*1364 FILLER_37_81
*1365 FILLER_37_93
*1366 FILLER_38_109
*1367 FILLER_38_121
*1368 FILLER_38_133
*1369 FILLER_38_139
*1370 FILLER_38_141
*1371 FILLER_38_15
*1372 FILLER_38_153
*1373 FILLER_38_165
*1374 FILLER_38_177
*1375 FILLER_38_189
*1376 FILLER_38_195
*1377 FILLER_38_197
*1378 FILLER_38_209
*1379 FILLER_38_221
*1380 FILLER_38_233
*1381 FILLER_38_245
*1382 FILLER_38_251
*1383 FILLER_38_253
*1384 FILLER_38_265
*1385 FILLER_38_27
*1386 FILLER_38_277
*1387 FILLER_38_289
*1388 FILLER_38_29
*1389 FILLER_38_3
*1390 FILLER_38_301
*1391 FILLER_38_307
*1392 FILLER_38_309
*1393 FILLER_38_321
*1394 FILLER_38_333
*1395 FILLER_38_345
*1396 FILLER_38_357
*1397 FILLER_38_363
*1398 FILLER_38_365
*1399 FILLER_38_377
*1400 FILLER_38_389
*1401 FILLER_38_401
*1402 FILLER_38_41
*1403 FILLER_38_53
*1404 FILLER_38_65
*1405 FILLER_38_77
*1406 FILLER_38_83
*1407 FILLER_38_85
*1408 FILLER_38_97
*1409 FILLER_39_105
*1410 FILLER_39_111
*1411 FILLER_39_113
*1412 FILLER_39_125
*1413 FILLER_39_137
*1414 FILLER_39_149
*1415 FILLER_39_15
*1416 FILLER_39_161
*1417 FILLER_39_167
*1418 FILLER_39_169
*1419 FILLER_39_181
*1420 FILLER_39_193
*1421 FILLER_39_205
*1422 FILLER_39_217
*1423 FILLER_39_223
*1424 FILLER_39_225
*1425 FILLER_39_237
*1426 FILLER_39_249
*1427 FILLER_39_261
*1428 FILLER_39_27
*1429 FILLER_39_273
*1430 FILLER_39_279
*1431 FILLER_39_281
*1432 FILLER_39_293
*1433 FILLER_39_3
*1434 FILLER_39_305
*1435 FILLER_39_317
*1436 FILLER_39_329
*1437 FILLER_39_335
*1438 FILLER_39_337
*1439 FILLER_39_349
*1440 FILLER_39_361
*1441 FILLER_39_373
*1442 FILLER_39_385
*1443 FILLER_39_39
*1444 FILLER_39_391
*1445 FILLER_39_393
*1446 FILLER_39_405
*1447 FILLER_39_51
*1448 FILLER_39_55
*1449 FILLER_39_57
*1450 FILLER_39_69
*1451 FILLER_39_81
*1452 FILLER_39_93
*1453 FILLER_3_105
*1454 FILLER_3_111
*1455 FILLER_3_113
*1456 FILLER_3_125
*1457 FILLER_3_137
*1458 FILLER_3_149
*1459 FILLER_3_15
*1460 FILLER_3_161
*1461 FILLER_3_167
*1462 FILLER_3_169
*1463 FILLER_3_181
*1464 FILLER_3_193
*1465 FILLER_3_205
*1466 FILLER_3_217
*1467 FILLER_3_223
*1468 FILLER_3_225
*1469 FILLER_3_237
*1470 FILLER_3_249
*1471 FILLER_3_261
*1472 FILLER_3_27
*1473 FILLER_3_273
*1474 FILLER_3_279
*1475 FILLER_3_281
*1476 FILLER_3_293
*1477 FILLER_3_3
*1478 FILLER_3_305
*1479 FILLER_3_317
*1480 FILLER_3_329
*1481 FILLER_3_335
*1482 FILLER_3_337
*1483 FILLER_3_349
*1484 FILLER_3_361
*1485 FILLER_3_373
*1486 FILLER_3_385
*1487 FILLER_3_39
*1488 FILLER_3_391
*1489 FILLER_3_393
*1490 FILLER_3_405
*1491 FILLER_3_51
*1492 FILLER_3_55
*1493 FILLER_3_57
*1494 FILLER_3_69
*1495 FILLER_3_81
*1496 FILLER_3_93
*1497 FILLER_40_109
*1498 FILLER_40_121
*1499 FILLER_40_133
*1500 FILLER_40_139
*1501 FILLER_40_141
*1502 FILLER_40_15
*1503 FILLER_40_153
*1504 FILLER_40_165
*1505 FILLER_40_177
*1506 FILLER_40_189
*1507 FILLER_40_195
*1508 FILLER_40_197
*1509 FILLER_40_209
*1510 FILLER_40_221
*1511 FILLER_40_233
*1512 FILLER_40_245
*1513 FILLER_40_251
*1514 FILLER_40_253
*1515 FILLER_40_265
*1516 FILLER_40_27
*1517 FILLER_40_277
*1518 FILLER_40_289
*1519 FILLER_40_29
*1520 FILLER_40_3
*1521 FILLER_40_301
*1522 FILLER_40_307
*1523 FILLER_40_309
*1524 FILLER_40_321
*1525 FILLER_40_333
*1526 FILLER_40_345
*1527 FILLER_40_357
*1528 FILLER_40_363
*1529 FILLER_40_365
*1530 FILLER_40_377
*1531 FILLER_40_389
*1532 FILLER_40_401
*1533 FILLER_40_41
*1534 FILLER_40_53
*1535 FILLER_40_65
*1536 FILLER_40_77
*1537 FILLER_40_83
*1538 FILLER_40_85
*1539 FILLER_40_97
*1540 FILLER_41_105
*1541 FILLER_41_111
*1542 FILLER_41_113
*1543 FILLER_41_125
*1544 FILLER_41_137
*1545 FILLER_41_149
*1546 FILLER_41_15
*1547 FILLER_41_161
*1548 FILLER_41_167
*1549 FILLER_41_169
*1550 FILLER_41_181
*1551 FILLER_41_193
*1552 FILLER_41_205
*1553 FILLER_41_217
*1554 FILLER_41_223
*1555 FILLER_41_225
*1556 FILLER_41_237
*1557 FILLER_41_249
*1558 FILLER_41_261
*1559 FILLER_41_27
*1560 FILLER_41_273
*1561 FILLER_41_279
*1562 FILLER_41_281
*1563 FILLER_41_293
*1564 FILLER_41_3
*1565 FILLER_41_305
*1566 FILLER_41_317
*1567 FILLER_41_329
*1568 FILLER_41_335
*1569 FILLER_41_337
*1570 FILLER_41_349
*1571 FILLER_41_361
*1572 FILLER_41_373
*1573 FILLER_41_385
*1574 FILLER_41_39
*1575 FILLER_41_391
*1576 FILLER_41_393