*SPEF "ieee 1481-1999"
*DESIGN "mult4_SARSA_RUIDO_e9_SarsaNada_e6_SARSA_RUIDO_e9_SARSA_RUIDO_e9"
*DATE "14:29:23 Tuesday September 16, 2025"
*VENDOR "The OpenROAD Project"
*PROGRAM "OpenROAD"
*VERSION "edf00dff99f6c40d67a30c0e22a8191c5d2ed9d6"
*DESIGN_FLOW "NAME_SCOPE LOCAL" "PIN_CAP NONE"
*DIVIDER /
*DELIMITER :
*BUS_DELIMITER []
*T_UNIT 1 NS
*C_UNIT 1 PF
*R_UNIT 1 OHM
*L_UNIT 1 HENRY

*NAME_MAP
*1 A[0]
*2 A[1]
*3 A[2]
*4 A[3]
*5 B[0]
*6 B[1]
*7 B[2]
*8 B[3]
*9 P[0]
*10 P[1]
*11 P[2]
*12 P[3]
*13 P[4]
*14 P[5]
*15 P[6]
*16 P[7]
*19 _00_
*20 _01_
*21 _02_
*22 _03_
*23 _04_
*24 _05_
*25 _06_
*26 _07_
*27 _08_
*28 _09_
*29 _10_
*30 _11_
*31 _12_
*32 _13_
*33 _14_
*34 _15_
*35 _16_
*36 _17_
*37 _18_
*38 _19_
*39 _20_
*40 _21_
*41 _22_
*42 _23_
*43 _24_
*44 _25_
*45 _26_
*46 _27_
*47 _28_
*48 _29_
*49 _30_
*50 mul_ll\.pp1
*51 mul_ll\.pp2
*52 net1
*53 net10
*54 net11
*55 net12
*56 net13
*57 net14
*58 net15
*59 net16
*60 net2
*61 net3
*62 net4
*63 net5
*64 net6
*65 net7
*66 net8
*67 net9
*68 FILLER_0_15
*69 FILLER_0_27
*70 FILLER_0_29
*71 FILLER_0_3
*72 FILLER_0_35
*73 FILLER_0_47
*74 FILLER_0_55
*75 FILLER_0_57
*76 FILLER_0_69
*77 FILLER_1_19
*78 FILLER_1_29
*79 FILLER_1_41
*80 FILLER_1_53
*81 FILLER_1_57
*82 FILLER_1_7
*83 FILLER_1_70
*84 FILLER_1_76
*85 FILLER_2_11
*86 FILLER_2_17
*87 FILLER_2_21
*88 FILLER_2_36
*89 FILLER_2_48
*90 FILLER_2_54
*91 FILLER_2_7
*92 FILLER_2_73
*93 FILLER_3_11
*94 FILLER_3_20
*95 FILLER_3_3
*96 FILLER_3_32
*97 FILLER_3_44
*98 FILLER_3_55
*99 FILLER_3_70
*100 FILLER_3_78
*101 FILLER_4_11
*102 FILLER_4_17
*103 FILLER_4_25
*104 FILLER_4_29
*105 FILLER_4_41
*106 FILLER_4_45
*107 FILLER_4_53
*108 FILLER_4_59
*109 FILLER_4_7
*110 FILLER_4_71
*111 FILLER_4_79
*112 FILLER_5_33
*113 FILLER_5_54
*114 FILLER_5_6
*115 FILLER_5_66
*116 FILLER_5_78
*117 FILLER_6_18
*118 FILLER_6_26
*119 FILLER_6_29
*120 FILLER_6_37
*121 FILLER_6_58
*122 FILLER_6_70
*123 FILLER_6_78
*124 FILLER_7_20
*125 FILLER_7_29
*126 FILLER_7_3
*127 FILLER_7_37
*128 FILLER_7_50
*129 FILLER_7_57
*130 FILLER_7_70
*131 FILLER_7_76
*132 FILLER_8_11
*133 FILLER_8_23
*134 FILLER_8_27
*135 FILLER_8_29
*136 FILLER_8_37
*137 FILLER_8_47
*138 FILLER_8_74
*139 FILLER_8_80
*140 FILLER_9_16
*141 FILLER_9_29
*142 FILLER_9_41
*143 FILLER_9_45
*144 FILLER_9_51
*145 FILLER_9_55
*146 FILLER_9_57
*147 FILLER_9_63
*148 FILLER_9_75
*149 PHY_EDGE_ROW_0_Left_10
*150 PHY_EDGE_ROW_0_Right_0
*151 PHY_EDGE_ROW_1_Left_11
*152 PHY_EDGE_ROW_1_Right_1
*153 PHY_EDGE_ROW_2_Left_12
*154 PHY_EDGE_ROW_2_Right_2
*155 PHY_EDGE_ROW_3_Left_13
*156 PHY_EDGE_ROW_3_Right_3
*157 PHY_EDGE_ROW_4_Left_14
*158 PHY_EDGE_ROW_4_Right_4
*159 PHY_EDGE_ROW_5_Left_15
*160 PHY_EDGE_ROW_5_Right_5
*161 PHY_EDGE_ROW_6_Left_16
*162 PHY_EDGE_ROW_6_Right_6
*163 PHY_EDGE_ROW_7_Left_17
*164 PHY_EDGE_ROW_7_Right_7
*165 PHY_EDGE_ROW_8_Left_18
*166 PHY_EDGE_ROW_8_Right_8
*167 PHY_EDGE_ROW_9_Left_19
*168 PHY_EDGE_ROW_9_Right_9
*169 TAP_TAPCELL_ROW_0_20
*170 TAP_TAPCELL_ROW_0_21
*171 TAP_TAPCELL_ROW_1_22
*172 TAP_TAPCELL_ROW_2_23
*173 TAP_TAPCELL_ROW_3_24
*174 TAP_TAPCELL_ROW_4_25
*175 TAP_TAPCELL_ROW_5_26
*176 TAP_TAPCELL_ROW_6_27
*177 TAP_TAPCELL_ROW_7_28
*178 TAP_TAPCELL_ROW_8_29
*179 TAP_TAPCELL_ROW_9_30
*180 TAP_TAPCELL_ROW_9_31
*181 _31_
*182 _32_
*183 _33_
*184 _34_
*185 _35_
*186 _36_
*187 _37_
*188 _38_
*189 _39_
*190 _40_
*191 _41_
*192 _42_
*193 _43_
*194 _44_
*195 _45_
*196 _46_
*197 _47_
*198 _48_
*199 _49_
*200 _50_
*201 _51_
*202 _52_
*203 _53_
*204 _54_
*205 _55_
*206 _56_
*207 _57_
*208 _58_
*209 _59_
*210 _60_
*211 _61_
*212 _62_
*213 _63_
*214 _64_
*215 _65_
*216 _66_
*217 _67_
*218 _68_
*219 _69_
*220 _70_
*221 _71_
*222 input1
*223 input2
*224 input3
*225 input4
*226 input5
*227 input6
*228 input7
*229 input8
*230 output10
*231 output11
*232 output12
*233 output13
*234 output14
*235 output15
*236 output16
*237 output9

*PORTS
A[0] I
A[1] I
A[2] I
A[3] I
B[0] I
B[1] I
B[2] I
B[3] I
P[0] O
P[1] O
P[2] O
P[3] O
P[4] O
P[5] O
P[6] O
P[7] O

*D_NET *1 0.00200226
*CONN
*P A[0] I
*I *222:A I *D sky130_fd_sc_hd__buf_1
*CAP
1 A[0] 0.00084136
2 *222:A 0
3 *1:15 0.00084136
4 *1:15 P[0] 0
5 *1:15 *6:17 0.000118824
6 *1:15 *9:10 4.75704e-05
7 *1:15 *64:10 0.000153145
*RES
1 A[0] *1:15 37.6615 
2 *1:15 *222:A 23 
*END

*D_NET *2 0.000918521
*CONN
*P A[1] I
*I *223:A I *D sky130_fd_sc_hd__clkbuf_2
*CAP
1 A[1] 0.000404777
2 *223:A 0.000404777
3 *223:A P[1] 0
4 *223:A *5:17 2.79122e-05
5 *223:A *8:17 3.12475e-05
6 *223:A *63:12 4.9808e-05
7 *223:A *64:18 0
*RES
1 A[1] *223:A 47.8604 
*END

*D_NET *3 0.000710781
*CONN
*P A[2] I
*I *224:A I *D sky130_fd_sc_hd__clkbuf_2
*CAP
1 A[2] 0.000342324
2 *224:A 0
3 *3:17 0.000342324
4 *3:17 P[2] 2.30055e-05
5 *3:17 *11:14 3.12741e-06
*RES
1 A[2] *3:17 27.6348 
2 *3:17 *224:A 23 
*END

*D_NET *4 0.00100489
*CONN
*P A[3] I
*I *225:A I *D sky130_fd_sc_hd__buf_1
*CAP
1 A[3] 0.000502446
2 *225:A 0.000502446
3 *225:A P[7] 0
4 *225:A *59:8 0
*RES
1 A[3] *225:A 48.73 
*END

*D_NET *5 0.00071699
*CONN
*P B[0] I
*I *226:A I *D sky130_fd_sc_hd__clkbuf_1
*CAP
1 B[0] 0.000330094
2 *226:A 0
3 *5:17 0.000330094
4 *5:17 *7:17 2.88889e-05
5 *5:17 *8:17 0
6 *5:17 *63:12 0
7 *223:A *5:17 2.79122e-05
*RES
1 B[0] *5:17 27.8627 
2 *5:17 *226:A 23 
*END

*D_NET *6 0.00107109
*CONN
*P B[1] I
*I *227:A I *D sky130_fd_sc_hd__dlymetal6s2s_1
*CAP
1 B[1] 0.00046218
2 *227:A 0
3 *6:17 0.00046218
4 *6:17 P[0] 2.79122e-05
5 *6:17 *9:10 0
6 *6:17 *10:12 0
7 *1:15 *6:17 0.000118824
*RES
1 B[1] *6:17 30.3277 
2 *6:17 *227:A 23 
*END

*D_NET *7 0.000775317
*CONN
*P B[2] I
*I *228:A I *D sky130_fd_sc_hd__clkbuf_2
*CAP
1 B[2] 0.000358769
2 *228:A 0
3 *7:17 0.000358769
4 *7:17 P[2] 1.5289e-05
5 *7:17 *11:14 1.35999e-05
6 *5:17 *7:17 2.88889e-05
*RES
1 B[2] *7:17 28.3391 
2 *7:17 *228:A 23 
*END

*D_NET *8 0.000828659
*CONN
*P B[3] I
*I *229:A I *D sky130_fd_sc_hd__clkbuf_2
*CAP
1 B[3] 0.000388083
2 *229:A 0
3 *8:17 0.000388083
4 *8:17 P[1] 2.12457e-05
5 *8:17 *63:12 0
6 *223:A *8:17 3.12475e-05
7 *5:17 *8:17 0
*RES
1 B[3] *8:17 29.0434 
2 *8:17 *229:A 23 
*END

*D_NET *9 0.00126266
*CONN
*P P[0] O
*I *237:X O *D sky130_fd_sc_hd__buf_2
*CAP
1 P[0] 0.00019046
2 *237:X 0.000337601
3 *9:10 0.000528061
4 P[0] P[1] 3.25681e-05
5 *9:10 *10:12 9.84851e-05
6 *9:10 *64:10 0
7 *9:10 *64:12 0
8 *9:10 *64:18 0
9 *1:15 P[0] 0
10 *1:15 *9:10 4.75704e-05
11 *6:17 P[0] 2.79122e-05
12 *6:17 *9:10 0
*RES
1 *237:X *9:10 43.9968 
2 *9:10 P[0] 8.672 
*END

*D_NET *10 0.00107082
*CONN
*P P[1] O
*I *230:X O *D sky130_fd_sc_hd__buf_2
*CAP
1 P[1] 6.96941e-05
2 *230:X 0.000319908
3 *10:12 0.000389602
4 *10:12 *67:10 0.000139319
5 P[0] P[1] 3.25681e-05
6 *223:A P[1] 0
7 *6:17 *10:12 0
8 *8:17 P[1] 2.12457e-05
9 *9:10 *10:12 9.84851e-05
*RES
1 *230:X *10:12 44.4318 
2 *10:12 P[1] 8.32853 
*END

*D_NET *11 0.000690039
*CONN
*P P[2] O
*I *231:X O *D sky130_fd_sc_hd__buf_2
*CAP
1 P[2] 7.86681e-05
2 *231:X 0.00023884
3 *11:14 0.000317508
4 *3:17 P[2] 2.30055e-05
5 *3:17 *11:14 3.12741e-06
6 *7:17 P[2] 1.5289e-05
7 *7:17 *11:14 1.35999e-05
*RES
1 *231:X *11:14 49.9 
2 *11:14 P[2] 0.382667 
*END

*D_NET *12 0.001009
*CONN
*P P[3] O
*I *232:X O *D sky130_fd_sc_hd__buf_2
*CAP
1 P[3] 0.000504502
2 *232:X 0.000504502
*RES
1 *232:X P[3] 47.57 
*END

*D_NET *13 0.000531345
*CONN
*P P[4] O
*I *233:X O *D sky130_fd_sc_hd__buf_2
*CAP
1 P[4] 0.000226083
2 *233:X 0.000226083
3 P[4] P[5] 7.91783e-05
*RES
1 *233:X P[4] 47.1648 
*END

*D_NET *14 0.000551005
*CONN
*P P[5] O
*I *234:X O *D sky130_fd_sc_hd__buf_2
*CAP
1 P[5] 0.000235913
2 *234:X 0.000235913
3 P[4] P[5] 7.91783e-05
*RES
1 *234:X P[5] 47.5169 
*END

*D_NET *15 0.000502077
*CONN
*P P[6] O
*I *235:X O *D sky130_fd_sc_hd__buf_2
*CAP
1 P[6] 0.000251039
2 *235:X 0.000251039
*RES
1 *235:X P[6] 47.1648 
*END

*D_NET *16 0.000960449
*CONN
*P P[7] O
*I *236:X O *D sky130_fd_sc_hd__buf_2
*CAP
1 P[7] 0.000480224
2 *236:X 0.000480224
3 *225:A P[7] 0
*RES
1 *236:X P[7] 48.5021 
*END

*D_NET *19 0.000716804
*CONN
*I *185:A I *D sky130_fd_sc_hd__or2_1
*I *186:A I *D sky130_fd_sc_hd__nand2_1
*I *183:X O *D sky130_fd_sc_hd__and2_1
*CAP
1 *185:A 0.00010629
2 *186:A 0
3 *183:X 0.000146065
4 *19:12 0.00010629
5 *19:10 0.000146065
6 *185:A *185:B 4.96101e-05
7 *185:A *21:10 2.13733e-05
8 *19:10 *20:10 6.6869e-05
9 *19:10 *61:10 4.48671e-05
10 *19:10 *61:23 2.93747e-05
*RES
1 *183:X *19:10 40.5271 
2 *19:10 *19:12 15 
3 *19:12 *186:A 23 
4 *19:12 *185:A 25.0714 
*END

*D_NET *20 0.00097912
*CONN
*I *186:B I *D sky130_fd_sc_hd__nand2_1
*I *185:B I *D sky130_fd_sc_hd__or2_1
*I *184:X O *D sky130_fd_sc_hd__mux2_1
*CAP
1 *186:B 0
2 *185:B 0.000112402
3 *184:X 0.000301143
4 *20:12 0.000112402
5 *20:10 0.000301143
6 *185:B *21:10 6.17437e-06
7 *20:10 *37:8 0
8 *20:10 *61:10 0
9 *20:10 *61:23 0
10 *20:10 *63:25 0
11 *20:10 *64:22 2.93747e-05
12 *20:10 *65:10 0
13 *185:A *185:B 4.96101e-05
14 *19:10 *20:10 6.6869e-05
*RES
1 *184:X *20:10 43.3443 
2 *20:10 *20:12 15 
3 *20:12 *185:B 25.5686 
4 *20:12 *186:B 23 
*END

*D_NET *21 0.000617025
*CONN
*I *187:A I *D sky130_fd_sc_hd__and2_1
*I *185:X O *D sky130_fd_sc_hd__or2_1
*CAP
1 *187:A 0
2 *185:X 0.000224372
3 *21:10 0.000224372
4 *21:10 *22:8 7.03663e-05
5 *21:10 *61:10 7.03663e-05
6 *185:A *21:10 2.13733e-05
7 *185:B *21:10 6.17437e-06
*RES
1 *185:X *21:10 41.9564 
2 *21:10 *187:A 38 
*END

*D_NET *22 0.00223823
*CONN
*I *204:A I *D sky130_fd_sc_hd__or3b_1
*I *187:B I *D sky130_fd_sc_hd__and2_1
*I *218:A I *D sky130_fd_sc_hd__xnor2_1
*I *186:Y O *D sky130_fd_sc_hd__nand2_1
*CAP
1 *204:A 0.000331091
2 *187:B 0.000123867
3 *218:A 0.000333969
4 *186:Y 0.000126905
5 *22:21 0.000454958
6 *22:8 0.000460873
7 *204:A *203:B 5.50049e-05
8 *204:A *204:B 7.88926e-05
9 *204:A *204:C_N 0.000182832
10 *204:A *38:10 1.94693e-05
11 *218:A *203:A_N 0
12 *218:A *38:10 0
13 *218:A *61:10 0
14 *22:8 *204:C_N 0
15 *22:8 *37:8 0
16 *22:8 *61:10 0
17 *21:10 *22:8 7.03663e-05
*RES
1 *186:Y *22:8 40.2579 
2 *22:8 *218:A 43.6136 
3 *22:8 *22:21 15 
4 *22:21 *187:B 25.0507 
5 *22:21 *204:A 30.3121 
*END

*D_NET *23 0.00259388
*CONN
*I *196:B1_N I *D sky130_fd_sc_hd__a21bo_1
*I *195:A I *D sky130_fd_sc_hd__or3b_1
*I *188:Y O *D sky130_fd_sc_hd__nand2_1
*CAP
1 *196:B1_N 0.000190633
2 *195:A 0
3 *188:Y 0.000319375
4 *23:14 0.00028067
5 *23:6 0.000790678
6 *196:B1_N *196:A1 1.21972e-05
7 *196:B1_N *196:A2 2.64616e-05
8 *23:6 *193:A 0.000141052
9 *23:6 *193:B 9.03364e-06
10 *23:6 *196:A2 2.18409e-05
11 *23:6 *31:10 5.50106e-05
12 *23:6 *60:41 7.72341e-05
13 *23:6 *60:52 7.40718e-05
14 *23:14 *195:B 0.000166522
15 *23:14 *195:C_N 9.67842e-05
16 *23:14 *27:10 0.000151907
17 *23:14 *29:12 7.75329e-06
18 *23:14 *31:10 0.000172656
19 *23:14 *43:10 0
*RES
1 *188:Y *23:6 28.8621 
2 *23:6 *23:14 36.525 
3 *23:14 *195:A 23 
4 *23:6 *196:B1_N 26.0036 
*END

*D_NET *24 0.00386744
*CONN
*I *212:D I *D sky130_fd_sc_hd__and4_1
*I *213:B1 I *D sky130_fd_sc_hd__a22o_1
*I *193:A I *D sky130_fd_sc_hd__or4bb_1
*I *192:A_N I *D sky130_fd_sc_hd__and4bb_1
*I *189:X O *D sky130_fd_sc_hd__and4_1
*CAP
1 *212:D 0.000164546
2 *213:B1 0
3 *193:A 0.00015364
4 *192:A_N 0
5 *189:X 0.000347966
6 *24:30 0.000277493
7 *24:15 0.000523469
8 *24:6 0.000604848
9 *193:A *196:A2 9.67842e-05
10 *193:A *25:42 6.7177e-06
11 *193:A *27:10 7.56417e-05
12 *193:A *29:10 8.26672e-05
13 *193:A *29:12 1.58805e-05
14 *212:D *212:A 0.000244709
15 *212:D *212:C 0.000272383
16 *212:D *214:B 3.91386e-05
17 *212:D *46:8 2.4754e-05
18 *212:D *66:72 2.64616e-05
19 *212:D *66:91 2.18506e-05
20 *24:6 *66:29 0.000251781
21 *24:6 *66:44 6.37432e-05
22 *24:15 *27:10 5.50049e-05
23 *24:15 *66:44 5.40241e-05
24 *24:15 *66:57 8.8485e-05
25 *24:30 *25:42 0.0001349
26 *24:30 *29:10 9.27814e-05
27 *24:30 *66:63 6.7177e-06
28 *23:6 *193:A 0.000141052
*RES
1 *189:X *24:6 29.3386 
2 *24:6 *192:A_N 23 
3 *24:6 *24:15 19.4329 
4 *24:15 *193:A 42.1843 
5 *24:15 *24:30 18.3143 
6 *24:30 *213:B1 23 
7 *24:30 *212:D 28.4271 
*END

*D_NET *25 0.00776567
*CONN
*I *202:B1 I *D sky130_fd_sc_hd__a22o_1
*I *198:C I *D sky130_fd_sc_hd__and4_1
*I *208:S I *D sky130_fd_sc_hd__mux2_1
*I *194:A3 I *D sky130_fd_sc_hd__a32o_1
*I *190:Y O *D sky130_fd_sc_hd__nand4_2
*CAP
1 *202:B1 0
2 *198:C 6.81411e-05
3 *208:S 0.00018088
4 *194:A3 0
5 *190:Y 0.000419113
6 *25:42 0.000784369
7 *25:24 0.00164989
8 *25:16 0.00103227
9 *25:10 0.000698599
10 *198:C *198:A 0.00014428
11 *198:C *61:36 3.22879e-05
12 *198:C *61:43 7.41573e-05
13 *208:S *208:A0 0.000202663
14 *208:S *41:6 1.76557e-05
15 *208:S *43:10 8.52481e-05
16 *25:10 *32:10 6.07929e-05
17 *25:10 *61:23 6.07611e-06
18 *25:10 *61:36 2.60152e-05
19 *25:10 *65:19 0
20 *25:10 *65:32 0
21 *25:10 *66:22 0.000272377
22 *25:16 *198:A 0.000432767
23 *25:16 *32:10 6.07611e-06
24 *25:16 *33:10 5.50049e-05
25 *25:16 *61:23 2.96154e-05
26 *25:16 *64:22 5.50106e-05
27 *25:16 *65:10 0
28 *25:24 *208:A0 0.000106548
29 *25:24 *209:A1 0.00040388
30 *25:24 *43:10 5.50106e-05
31 *25:24 *61:43 1.30173e-05
32 *25:24 *61:49 1.1477e-05
33 *25:24 *66:37 3.47032e-05
34 *25:42 *194:A2 4.78497e-05
35 *25:42 *194:B1 3.85196e-05
36 *25:42 *195:B 3.70187e-05
37 *25:42 *27:10 0.000342134
38 *25:42 *61:61 5.50106e-05
39 *25:42 *62:37 0.000128105
40 *25:42 *66:91 1.74841e-05
41 *193:A *25:42 6.7177e-06
42 *24:30 *25:42 0.0001349
*RES
1 *190:Y *25:10 45.7264 
2 *25:10 *25:16 21.7114 
3 *25:16 *25:24 11.165 
4 *25:24 *25:42 44.8107 
5 *25:42 *194:A3 23 
6 *25:24 *208:S 27.9093 
7 *25:16 *198:C 25.9 
8 *25:10 *202:B1 38 
*END

*D_NET *26 0.00206791
*CONN
*I *192:B_N I *D sky130_fd_sc_hd__and4bb_1
*I *193:B I *D sky130_fd_sc_hd__or4bb_1
*I *191:Y O *D sky130_fd_sc_hd__nand2_1
*CAP
1 *192:B_N 1.55776e-05
2 *193:B 0.000333362
3 *191:Y 0.000336626
4 *26:10 0.000685565
5 *192:B_N *189:C 5.56356e-05
6 *192:B_N *66:44 5.56356e-05
7 *193:B *60:41 5.40337e-05
8 *193:B *60:52 7.43212e-05
9 *193:B *65:58 0.000191157
10 *193:B *66:50 4.02943e-05
11 *26:10 *194:B1 1.96983e-05
12 *26:10 *62:16 2.08345e-05
13 *26:10 *64:64 0.000176136
14 *23:6 *193:B 9.03364e-06
*RES
1 *191:Y *26:10 43.945 
2 *26:10 *193:B 43.6136 
3 *26:10 *192:B_N 38.6214 
*END

*D_NET *27 0.00172855
*CONN
*I *209:B1 I *D sky130_fd_sc_hd__a31oi_2
*I *195:B I *D sky130_fd_sc_hd__or3b_1
*I *192:X O *D sky130_fd_sc_hd__and4bb_1
*CAP
1 *209:B1 0
2 *195:B 0.000129064
3 *192:X 0.000289823
4 *27:10 0.000418887
5 *195:B *195:C_N 2.93845e-05
6 *195:B *43:10 3.31683e-05
7 *193:A *27:10 7.56417e-05
8 *23:14 *195:B 0.000166522
9 *23:14 *27:10 0.000151907
10 *24:15 *27:10 5.50049e-05
11 *25:42 *195:B 3.70187e-05
12 *25:42 *27:10 0.000342134
*RES
1 *192:X *27:10 44.2971 
2 *27:10 *195:B 40.8793 
3 *27:10 *209:B1 38 
*END

*D_NET *28 0.000437531
*CONN
*I *196:A1 I *D sky130_fd_sc_hd__a21bo_1
*I *193:X O *D sky130_fd_sc_hd__or4bb_1
*CAP
1 *196:A1 0.000142991
2 *193:X 0.000142991
3 *196:A1 *196:A2 0.000139352
4 *196:B1_N *196:A1 1.21972e-05
*RES
1 *193:X *196:A1 48.5479 
*END

*D_NET *29 0.00325625
*CONN
*I *196:A2 I *D sky130_fd_sc_hd__a21bo_1
*I *209:A3 I *D sky130_fd_sc_hd__a31oi_2
*I *195:C_N I *D sky130_fd_sc_hd__or3b_1
*I *194:X O *D sky130_fd_sc_hd__a32o_1
*CAP
1 *196:A2 7.65556e-05
2 *209:A3 5.71763e-05
3 *195:C_N 0.000305921
4 *194:X 0.000236135
5 *29:12 0.000461817
6 *29:10 0.00041141
7 *195:C_N *30:10 3.7122e-06
8 *195:C_N *31:10 0.000241355
9 *195:C_N *61:61 2.71291e-05
10 *209:A3 *208:A0 0.000108019
11 *209:A3 *41:6 0.000139974
12 *209:A3 *61:49 1.8788e-05
13 *209:A3 *61:53 2.8639e-05
14 *29:10 *194:A2 5.3304e-05
15 *29:10 *61:61 9.69326e-05
16 *29:10 *66:63 0.000139647
17 *29:10 *66:72 4.08664e-05
18 *29:12 *31:10 0.000110922
19 *29:12 *61:61 8.82524e-05
20 *193:A *196:A2 9.67842e-05
21 *193:A *29:10 8.26672e-05
22 *193:A *29:12 1.58805e-05
23 *195:B *195:C_N 2.93845e-05
24 *196:A1 *196:A2 0.000139352
25 *196:B1_N *196:A2 2.64616e-05
26 *23:6 *196:A2 2.18409e-05
27 *23:14 *195:C_N 9.67842e-05
28 *23:14 *29:12 7.75329e-06
29 *24:30 *29:10 9.27814e-05
*RES
1 *194:X *29:10 43.8207 
2 *29:10 *29:12 2.61 
3 *29:12 *195:C_N 43.8621 
4 *29:12 *209:A3 40.0714 
5 *29:10 *196:A2 40.0507 
*END

*D_NET *30 0.000660825
*CONN
*I *199:A I *D sky130_fd_sc_hd__and3_1
*I *200:A1 I *D sky130_fd_sc_hd__a21oi_1
*I *195:X O *D sky130_fd_sc_hd__or3b_1
*CAP
1 *199:A 9.61837e-05
2 *200:A1 0
3 *195:X 0.000155188
4 *30:12 9.61837e-05
5 *30:10 0.000155188
6 *199:A *199:C 7.03216e-05
7 *30:10 *31:10 8.4047e-05
8 *195:C_N *30:10 3.7122e-06
*RES
1 *195:X *30:10 40.2993 
2 *30:10 *30:12 15 
3 *30:12 *200:A1 23 
4 *30:12 *199:A 24.74 
*END

*D_NET *31 0.00203381
*CONN
*I *200:A2 I *D sky130_fd_sc_hd__a21oi_1
*I *199:B I *D sky130_fd_sc_hd__and3_1
*I *196:X O *D sky130_fd_sc_hd__a21bo_1
*CAP
1 *200:A2 0
2 *199:B 0.000179519
3 *196:X 0.000469568
4 *31:10 0.000649087
5 *199:B *199:C 6.74324e-05
6 *199:B *210:B 0
7 *199:B *35:8 4.21594e-06
8 *199:B *39:12 0
9 *31:10 *210:B 0
10 *195:C_N *31:10 0.000241355
11 *23:6 *31:10 5.50106e-05
12 *23:14 *31:10 0.000172656
13 *29:12 *31:10 0.000110922
14 *30:10 *31:10 8.4047e-05
*RES
1 *196:X *31:10 46.1614 
2 *31:10 *199:B 40.7757 
3 *31:10 *200:A2 38 
*END

*D_NET *32 0.00128386
*CONN
*I *198:D I *D sky130_fd_sc_hd__and4_1
*I *202:B2 I *D sky130_fd_sc_hd__a22o_1
*I *197:X O *D sky130_fd_sc_hd__a22o_1
*CAP
1 *198:D 0.000175295
2 *202:B2 0
3 *197:X 0.000183711
4 *32:12 0.000175295
5 *32:10 0.000183711
6 *198:D *198:A 0.000151601
7 *198:D *202:A1 4.00259e-06
8 *198:D *61:36 0.000228909
9 *198:D *64:22 7.73389e-05
10 *32:10 *60:41 3.71251e-05
11 *32:10 *65:10 0
12 *32:10 *65:19 0
13 *25:10 *32:10 6.07929e-05
14 *25:16 *32:10 6.07611e-06
*RES
1 *197:X *32:10 41.0036 
2 *32:10 *32:12 15 
3 *32:12 *202:B2 23 
4 *32:12 *198:D 27.93 
*END

*D_NET *33 0.00317538
*CONN
*I *199:C I *D sky130_fd_sc_hd__and3_1
*I *200:B1 I *D sky130_fd_sc_hd__a21oi_1
*I *204:B I *D sky130_fd_sc_hd__or3b_1
*I *203:A_N I *D sky130_fd_sc_hd__and2b_1
*I *198:X O *D sky130_fd_sc_hd__and4_1
*CAP
1 *199:C 0.000192911
2 *200:B1 0
3 *204:B 0.000101846
4 *203:A_N 8.60258e-05
5 *198:X 0.000222063
6 *33:34 0.000784162
7 *33:12 0.000293213
8 *33:10 0.000918654
9 *203:A_N *204:C_N 2.71291e-05
10 *203:A_N *37:8 1.83667e-05
11 *33:10 *37:8 0.000163065
12 *33:12 *37:8 9.6289e-05
13 *199:A *199:C 7.03216e-05
14 *199:B *199:C 6.74324e-05
15 *204:A *204:B 7.88926e-05
16 *218:A *203:A_N 0
17 *25:16 *33:10 5.50049e-05
*RES
1 *198:X *33:10 42.9921 
2 *33:10 *33:12 2.61 
3 *33:12 *203:A_N 39.5536 
4 *33:12 *204:B 39.5743 
5 *33:10 *33:34 24.1971 
6 *33:34 *200:B1 23 
7 *33:34 *199:C 28.075 
*END

*D_NET *34 0.00191043
*CONN
*I *201:A I *D sky130_fd_sc_hd__nor2_1
*I *216:A1 I *D sky130_fd_sc_hd__a21o_1
*I *206:B1_N I *D sky130_fd_sc_hd__o21ba_1
*I *199:X O *D sky130_fd_sc_hd__and3_1
*CAP
1 *201:A 0
2 *216:A1 0
3 *206:B1_N 1.19634e-05
4 *199:X 0.000187652
5 *34:37 0.000233141
6 *34:18 0.000398169
7 *34:12 0.000153064
8 *34:10 0.000187652
9 *34:10 *210:B 6.17437e-06
10 *34:10 *35:8 0
11 *34:10 *39:12 0.000111852
12 *34:10 *39:29 0
13 *34:18 *206:A1 5.67058e-05
14 *34:18 *35:14 5.54148e-05
15 *34:18 *36:10 0.000358425
16 *34:18 *39:21 3.17516e-05
17 *34:37 *211:A 1.32314e-05
18 *34:37 *36:10 1.03836e-05
19 *34:37 *39:12 0
20 *34:37 *39:21 0
21 *34:37 *44:21 5.561e-05
22 *34:37 *49:10 3.92407e-05
*RES
1 *199:X *34:10 40.8793 
2 *34:10 *34:12 15 
3 *34:12 *34:18 5.42714 
4 *34:18 *206:B1_N 23.5852 
5 *34:18 *34:37 34.2257 
6 *34:37 *216:A1 23 
7 *34:12 *201:A 23 
*END

*D_NET *35 0.00123932
*CONN
*I *206:A1 I *D sky130_fd_sc_hd__o21ba_1
*I *201:B I *D sky130_fd_sc_hd__nor2_1
*I *200:Y O *D sky130_fd_sc_hd__a21oi_1
*CAP
1 *206:A1 7.99798e-06
2 *201:B 0
3 *200:Y 0.00011906
4 *35:14 0.000179616
5 *35:8 0.000290678
6 *206:A1 *39:21 2.4754e-05
7 *35:14 *39:6 0.000443679
8 *35:14 *39:21 5.71976e-05
9 *199:B *35:8 4.21594e-06
10 *34:10 *35:8 0
11 *34:18 *206:A1 5.67058e-05
12 *34:18 *35:14 5.54148e-05
*RES
1 *200:Y *35:8 39.9057 
2 *35:8 *35:14 20.8829 
3 *35:14 *201:B 23 
4 *35:14 *206:A1 23.6214 
*END

*D_NET *36 0.00114208
*CONN
*I *205:A I *D sky130_fd_sc_hd__xnor2_1
*I *201:Y O *D sky130_fd_sc_hd__nor2_1
*CAP
1 *205:A 0
2 *201:Y 0.000383547
3 *36:10 0.000383547
4 *36:10 *211:A 6.17437e-06
5 *36:10 *39:29 0
6 *34:18 *36:10 0.000358425
7 *34:37 *36:10 1.03836e-05
*RES
1 *201:Y *36:10 44.3386 
2 *36:10 *205:A 38 
*END

*D_NET *37 0.00147136
*CONN
*I *203:B I *D sky130_fd_sc_hd__and2b_1
*I *204:C_N I *D sky130_fd_sc_hd__or3b_1
*I *202:X O *D sky130_fd_sc_hd__a22o_1
*CAP
1 *203:B 3.27378e-05
2 *204:C_N 0.00013344
3 *202:X 0.000255586
4 *37:8 0.000421764
5 *37:8 *61:23 8.51432e-05
6 *203:A_N *204:C_N 2.71291e-05
7 *203:A_N *37:8 1.83667e-05
8 *204:A *203:B 5.50049e-05
9 *204:A *204:C_N 0.000182832
10 *20:10 *37:8 0
11 *22:8 *204:C_N 0
12 *22:8 *37:8 0
13 *33:10 *37:8 0.000163065
14 *33:12 *37:8 9.6289e-05
*RES
1 *202:X *37:8 45.1879 
2 *37:8 *204:C_N 40.9 
3 *37:8 *203:B 38.6214 
*END

*D_NET *38 0.000379575
*CONN
*I *218:B I *D sky130_fd_sc_hd__xnor2_1
*I *203:X O *D sky130_fd_sc_hd__and2b_1
*CAP
1 *218:B 0
2 *203:X 0.000180053
3 *38:10 0.000180053
4 *204:A *38:10 1.94693e-05
5 *218:A *38:10 0
*RES
1 *203:X *38:10 40.8793 
2 *38:10 *218:B 38 
*END

*D_NET *39 0.00321796
*CONN
*I *206:A2 I *D sky130_fd_sc_hd__o21ba_1
*I *205:B I *D sky130_fd_sc_hd__xnor2_1
*I *215:A1 I *D sky130_fd_sc_hd__a21oi_1
*I *204:X O *D sky130_fd_sc_hd__or3b_1
*CAP
1 *206:A2 0
2 *205:B 0
3 *215:A1 0
4 *204:X 0.000532947
5 *39:29 0.00029678
6 *39:21 0.000426743
7 *39:12 0.000157775
8 *39:6 0.000820685
9 *39:12 *210:A 0.00014411
10 *39:12 *210:B 0.000169683
11 *199:B *39:12 0
12 *206:A1 *39:21 2.4754e-05
13 *34:10 *39:12 0.000111852
14 *34:10 *39:29 0
15 *34:18 *39:21 3.17516e-05
16 *34:37 *39:12 0
17 *34:37 *39:21 0
18 *35:14 *39:6 0.000443679
19 *35:14 *39:21 5.71976e-05
20 *36:10 *39:29 0
*RES
1 *204:X *39:6 33.15 
2 *39:6 *39:12 34.3707 
3 *39:12 *215:A1 23 
4 *39:6 *39:21 2.9 
5 *39:21 *39:29 35.0129 
6 *39:29 *205:B 23 
7 *39:21 *206:A2 23 
*END

*D_NET *40 0.00018698
*CONN
*I *211:A I *D sky130_fd_sc_hd__xnor2_1
*I *206:X O *D sky130_fd_sc_hd__o21ba_1
*CAP
1 *211:A 8.37871e-05
2 *206:X 8.37871e-05
3 *34:37 *211:A 1.32314e-05
4 *36:10 *211:A 6.17437e-06
*RES
1 *206:X *211:A 47.5743 
*END

*D_NET *41 0.00193892
*CONN
*I *208:A1 I *D sky130_fd_sc_hd__mux2_1
*I *207:Y O *D sky130_fd_sc_hd__nand2_1
*CAP
1 *208:A1 0
2 *207:Y 0.000600636
3 *41:6 0.000600636
4 *41:6 *208:A0 0.000539524
5 *41:6 *61:49 1.3523e-05
6 *41:6 *61:53 2.69729e-05
7 *208:S *41:6 1.76557e-05
8 *209:A3 *41:6 0.000139974
*RES
1 *207:Y *41:6 32.1971 
2 *41:6 *208:A1 23 
*END

*D_NET *42 0.000891636
*CONN
*I *215:B1 I *D sky130_fd_sc_hd__a21oi_1
*I *210:A I *D sky130_fd_sc_hd__xor2_1
*I *208:X O *D sky130_fd_sc_hd__mux2_1
*CAP
1 *215:B1 3.99076e-05
2 *210:A 0.000151826
3 *208:X 9.13491e-05
4 *42:8 0.000283082
5 *210:A *210:B 8.62184e-05
6 *210:A *43:10 6.07611e-06
7 *210:A *49:10 0
8 *215:B1 *48:10 7.53384e-06
9 *42:8 *43:10 8.15327e-05
10 *42:8 *49:10 0
11 *39:12 *210:A 0.00014411
*RES
1 *208:X *42:8 40.2579 
2 *42:8 *210:A 41.7079 
3 *42:8 *215:B1 38.6214 
*END

*D_NET *43 0.00132809
*CONN
*I *215:A2 I *D sky130_fd_sc_hd__a21oi_1
*I *210:B I *D sky130_fd_sc_hd__xor2_1
*I *209:Y O *D sky130_fd_sc_hd__a31oi_2
*CAP
1 *215:A2 0
2 *210:B 0.000218672
3 *209:Y 0.000183817
4 *43:10 0.000402489
5 *195:B *43:10 3.31683e-05
6 *199:B *210:B 0
7 *208:S *43:10 8.52481e-05
8 *210:A *210:B 8.62184e-05
9 *210:A *43:10 6.07611e-06
10 *23:14 *43:10 0
11 *25:24 *43:10 5.50106e-05
12 *31:10 *210:B 0
13 *34:10 *210:B 6.17437e-06
14 *39:12 *210:B 0.000169683
15 *42:8 *43:10 8.15327e-05
*RES
1 *209:Y *43:10 42.1843 
2 *43:10 *210:B 42.5364 
3 *43:10 *215:A2 38 
*END

*D_NET *44 0.000725821
*CONN
*I *211:B I *D sky130_fd_sc_hd__xnor2_1
*I *216:A2 I *D sky130_fd_sc_hd__a21o_1
*I *210:X O *D sky130_fd_sc_hd__xor2_1
*CAP
1 *211:B 0
2 *216:A2 5.67488e-05
3 *210:X 4.64022e-05
4 *44:21 0.000217267
5 *44:6 0.000320418
6 *44:21 *49:8 2.93747e-05
7 *34:37 *44:21 5.561e-05
*RES
1 *210:X *44:6 23.6214 
2 *44:6 *216:A2 24.2014 
3 *44:6 *44:21 33.48 
4 *44:21 *211:B 23 
*END

*D_NET *45 0.000965259
*CONN
*I *214:A_N I *D sky130_fd_sc_hd__and2b_1
*I *219:B1 I *D sky130_fd_sc_hd__a21o_1
*I *212:X O *D sky130_fd_sc_hd__and4_1
*CAP
1 *214:A_N 0.00020291
2 *219:B1 2.69068e-05
3 *212:X 2.1227e-05
4 *45:6 0.000251044
5 *214:A_N *214:B 9.74625e-05
6 *214:A_N *219:A1 8.52481e-05
7 *214:A_N *219:A2 5.50106e-05
8 *219:B1 *214:B 0
9 *219:B1 *219:A1 0
10 *45:6 *214:B 8.1796e-05
11 *45:6 *219:A1 0.000143655
*RES
1 *212:X *45:6 24.5743 
2 *45:6 *219:B1 23.4971 
3 *45:6 *214:A_N 27.4329 
*END

*D_NET *46 0.0018911
*CONN
*I *214:B I *D sky130_fd_sc_hd__and2b_1
*I *219:A1 I *D sky130_fd_sc_hd__a21o_1
*I *213:X O *D sky130_fd_sc_hd__a22o_1
*CAP
1 *214:B 0.000223048
2 *219:A1 0.00019232
3 *213:X 0.000125143
4 *46:8 0.00054051
5 *214:B *219:A2 5.50106e-05
6 *46:8 *212:C 0.000184527
7 *46:8 *66:91 9.84851e-05
8 *212:D *214:B 3.91386e-05
9 *212:D *46:8 2.4754e-05
10 *214:A_N *214:B 9.74625e-05
11 *214:A_N *219:A1 8.52481e-05
12 *219:B1 *214:B 0
13 *219:B1 *219:A1 0
14 *45:6 *214:B 8.1796e-05
15 *45:6 *219:A1 0.000143655
*RES
1 *213:X *46:8 26.5007 
2 *46:8 *219:A1 26.5007 
3 *46:8 *214:B 28.9243 
*END

*D_NET *47 0.000465279
*CONN
*I *217:A I *D sky130_fd_sc_hd__xor2_1
*I *214:X O *D sky130_fd_sc_hd__and2b_1
*CAP
1 *217:A 0.000102866
2 *214:X 9.58235e-05
3 *47:8 0.000198689
4 *47:8 *219:A2 6.79006e-05
*RES
1 *214:X *47:8 39.9057 
2 *47:8 *217:A 39.5743 
*END

*D_NET *48 0.00105064
*CONN
*I *216:B1 I *D sky130_fd_sc_hd__a21o_1
*I *215:Y O *D sky130_fd_sc_hd__a21oi_1
*CAP
1 *216:B1 0
2 *215:Y 0.000395024
3 *48:10 0.000395024
4 *48:10 *49:10 0.000253061
5 *215:B1 *48:10 7.53384e-06
*RES
1 *215:Y *48:10 45.7471 
2 *48:10 *216:B1 38 
*END

*D_NET *49 0.00210107
*CONN
*I *219:A2 I *D sky130_fd_sc_hd__a21o_1
*I *217:B I *D sky130_fd_sc_hd__xor2_1
*I *216:X O *D sky130_fd_sc_hd__a21o_1
*CAP
1 *219:A2 0.000178616
2 *217:B 0
3 *216:X 8.45565e-05
4 *49:10 0.00071618
5 *49:8 0.00062212
6 *210:A *49:10 0
7 *214:A_N *219:A2 5.50106e-05
8 *214:B *219:A2 5.50106e-05
9 *34:37 *49:10 3.92407e-05
10 *42:8 *49:10 0
11 *44:21 *49:8 2.93747e-05
12 *47:8 *219:A2 6.79006e-05
13 *48:10 *49:10 0.000253061
*RES
1 *216:X *49:8 39.5743 
2 *49:8 *49:10 11.4136 
3 *49:10 *217:B 38 
4 *49:10 *219:A2 41.5836 
*END

*D_NET *50 0.001358
*CONN
*I *220:A I *D sky130_fd_sc_hd__clkbuf_1
*I *182:X O *D sky130_fd_sc_hd__and2_1
*CAP
1 *220:A 0
2 *182:X 0.000439865
3 *50:10 0.000439865
4 *50:10 *182:A 9.84794e-05
5 *50:10 *189:A 1.32314e-05
6 *50:10 *52:10 0
7 *50:10 *52:14 0
8 *50:10 *52:16 0.000137651
9 *50:10 *52:38 0.000228909
*RES
1 *182:X *50:10 44.815 
2 *50:10 *220:A 38 
*END

*D_NET *51 0.000485538
*CONN
*I *221:A I *D sky130_fd_sc_hd__clkbuf_1
*I *181:X O *D sky130_fd_sc_hd__and2_1
*CAP
1 *221:A 0.000150076
2 *181:X 0.000150076
3 *221:A *53:12 0.000102093
4 *221:A *64:56 2.65879e-05
5 *221:A *67:10 5.67058e-05
*RES
1 *181:X *221:A 49.5007 
*END

*D_NET *52 0.00284536
*CONN
*I *181:B I *D sky130_fd_sc_hd__and2_1
*I *189:A I *D sky130_fd_sc_hd__and4_1
*I *190:A I *D sky130_fd_sc_hd__nand4_2
*I *197:B2 I *D sky130_fd_sc_hd__a22o_1
*I *182:A I *D sky130_fd_sc_hd__and2_1
*I *222:X O *D sky130_fd_sc_hd__buf_1
*CAP
1 *181:B 0
2 *189:A 6.09467e-05
3 *190:A 2.1727e-05
4 *197:B2 0
5 *182:A 0.000144916
6 *222:X 0.000171688
7 *52:38 0.000123802
8 *52:31 0.000117622
9 *52:16 0.000327493
10 *52:14 0.000226133
11 *52:10 0.000291738
12 *182:A *66:14 5.50106e-05
13 *182:A *66:22 1.40958e-05
14 *189:A *65:43 7.42621e-05
15 *190:A *190:B 4.00259e-06
16 *190:A *65:43 0
17 *52:10 *64:10 4.08641e-05
18 *52:10 *64:12 3.82956e-05
19 *52:14 *64:12 6.07611e-06
20 *52:14 *64:18 7.81176e-05
21 *52:16 *65:32 6.17437e-06
22 *52:16 *66:22 3.28795e-05
23 *52:31 *64:18 0.000274553
24 *52:31 *66:14 0.000126936
25 *52:38 *65:32 4.79641e-05
26 *52:38 *65:43 8.1796e-05
27 *50:10 *182:A 9.84794e-05
28 *50:10 *189:A 1.32314e-05
29 *50:10 *52:10 0
30 *50:10 *52:14 0
31 *50:10 *52:16 0.000137651
32 *50:10 *52:38 0.000228909
*RES
1 *222:X *52:10 40.8793 
2 *52:10 *52:14 17.2579 
3 *52:14 *52:16 1.57429 
4 *52:16 *182:A 26.0243 
5 *52:16 *52:31 33.6664 
6 *52:31 *197:B2 23 
7 *52:14 *52:38 2.52714 
8 *52:38 *190:A 23.4971 
9 *52:38 *189:A 24.5743 
10 *52:10 *181:B 38 
*END

*D_NET *53 0.000804176
*CONN
*I *230:A I *D sky130_fd_sc_hd__buf_2
*I *221:X O *D sky130_fd_sc_hd__clkbuf_1
*CAP
1 *230:A 0
2 *221:X 0.000198711
3 *53:12 0.000198711
4 *53:12 *64:56 0.000198206
5 *53:12 *67:10 0.000106457
6 *221:A *53:12 0.000102093
*RES
1 *221:X *53:12 29.0486 
2 *53:12 *230:A 23 
*END

*D_NET *54 0.000323372
*CONN
*I *231:A I *D sky130_fd_sc_hd__buf_2
*I *187:X O *D sky130_fd_sc_hd__and2_1
*CAP
1 *231:A 0.000161686
2 *187:X 0.000161686
*RES
1 *187:X *231:A 49.0036 
*END

*D_NET *55 0.000484089
*CONN
*I *232:A I *D sky130_fd_sc_hd__buf_2
*I *218:Y O *D sky130_fd_sc_hd__xnor2_1
*CAP
1 *232:A 0
2 *218:Y 0.000242044
3 *55:10 0.000242044
*RES
1 *218:Y *55:10 42.1843 
2 *55:10 *232:A 38 
*END

*D_NET *56 0.000506189
*CONN
*I *233:A I *D sky130_fd_sc_hd__buf_2
*I *205:Y O *D sky130_fd_sc_hd__xnor2_1
*CAP
1 *233:A 0
2 *205:Y 0.000253095
3 *56:8 0.000253095
*RES
1 *205:Y *56:8 27.8057 
2 *56:8 *233:A 23 
*END

*D_NET *57 0.000352309
*CONN
*I *234:A I *D sky130_fd_sc_hd__buf_2
*I *211:Y O *D sky130_fd_sc_hd__xnor2_1
*CAP
1 *234:A 0.000176155
2 *211:Y 0.000176155
*RES
1 *211:Y *234:A 49.3764 
*END

*D_NET *58 0.000472923
*CONN
*I *235:A I *D sky130_fd_sc_hd__buf_2
*I *217:X O *D sky130_fd_sc_hd__xor2_1
*CAP
1 *235:A 0
2 *217:X 0.000236461
3 *58:8 0.000236461
*RES
1 *217:X *58:8 27.4536 
2 *58:8 *235:A 23 
*END

*D_NET *59 0.000242348
*CONN
*I *236:A I *D sky130_fd_sc_hd__buf_2
*I *219:X O *D sky130_fd_sc_hd__a21o_1
*CAP
1 *236:A 0
2 *219:X 0.000121174
3 *59:8 0.000121174
4 *225:A *59:8 0
*RES
1 *219:X *59:8 40.2579 
2 *59:8 *236:A 38 
*END

*D_NET *60 0.00691697
*CONN
*I *194:A1 I *D sky130_fd_sc_hd__a32o_1
*I *192:C I *D sky130_fd_sc_hd__and4bb_1
*I *189:C I *D sky130_fd_sc_hd__and4_1
*I *193:C_N I *D sky130_fd_sc_hd__or4bb_1
*I *197:A2 I *D sky130_fd_sc_hd__a22o_1
*I *190:C I *D sky130_fd_sc_hd__nand4_2
*I *184:S I *D sky130_fd_sc_hd__mux2_1
*I *223:X O *D sky130_fd_sc_hd__clkbuf_2
*CAP
1 *194:A1 0.000197926
2 *192:C 5.06203e-05
3 *189:C 0.000607785
4 *193:C_N 0
5 *197:A2 2.34823e-05