*SPEF "ieee 1481-1999"
*DESIGN "mult4_SarsaNStepsRuido_e9_SARSA_RUIDO_e9_SARSA_RUIDO_e9_SARSA_RUIDO_e9"
*DATE "11:55:31 Wednesday September 17, 2025"
*VENDOR "The OpenROAD Project"
*PROGRAM "OpenROAD"
*VERSION "edf00dff99f6c40d67a30c0e22a8191c5d2ed9d6"
*DESIGN_FLOW "NAME_SCOPE LOCAL" "PIN_CAP NONE"
*DIVIDER /
*DELIMITER :
*BUS_DELIMITER []
*T_UNIT 1 NS
*C_UNIT 1 PF
*R_UNIT 1 OHM
*L_UNIT 1 HENRY

*NAME_MAP
*1 A[0]
*2 A[1]
*3 A[2]
*4 A[3]
*5 B[0]
*6 B[1]
*7 B[2]
*8 B[3]
*9 net16
*10 P[1]
*11 P[2]
*12 P[3]
*13 P[4]
*14 P[5]
*15 P[6]
*16 P[7]
*19 _000_
*20 _001_
*21 _002_
*22 _003_
*23 _004_
*24 _005_
*25 _006_
*26 _007_
*27 _008_
*28 _009_
*29 _010_
*30 _011_
*31 _012_
*32 _013_
*33 _014_
*34 _015_
*35 _016_
*36 _017_
*37 _018_
*38 _019_
*39 _020_
*40 _021_
*41 _022_
*42 _023_
*43 _024_
*44 _025_
*45 _026_
*46 _027_
*47 _028_
*48 _029_
*49 _030_
*50 _031_
*51 _032_
*52 _033_
*53 _034_
*54 _035_
*55 _036_
*56 _037_
*57 _038_
*58 _039_
*59 _040_
*60 _041_
*61 _042_
*62 _043_
*63 _044_
*64 _045_
*65 _046_
*66 _047_
*67 _048_
*68 _049_
*69 _050_
*70 _051_
*71 _052_
*72 _053_
*73 _054_
*74 _055_
*75 _056_
*76 _057_
*77 net1
*78 net10
*79 net11
*80 net12
*81 net13
*82 net14
*83 net15
*84 net2
*85 net3
*86 net4
*87 net5
*88 net6
*89 net7
*90 net8
*91 net9
*92 FILLER_0_16
*93 FILLER_0_20
*94 FILLER_0_29
*95 FILLER_0_41
*96 FILLER_0_50
*97 FILLER_0_57
*98 FILLER_0_69
*99 FILLER_0_7
*100 FILLER_1_19
*101 FILLER_1_3
*102 FILLER_1_39
*103 FILLER_1_50
*104 FILLER_1_55
*105 FILLER_1_62
*106 FILLER_1_74
*107 FILLER_2_18
*108 FILLER_2_27
*109 FILLER_2_29
*110 FILLER_2_41
*111 FILLER_2_50
*112 FILLER_2_62
*113 FILLER_2_71
*114 FILLER_3_3
*115 FILLER_3_40
*116 FILLER_3_49
*117 FILLER_3_55
*118 FILLER_3_57
*119 FILLER_3_63
*120 FILLER_3_73
*121 FILLER_3_79
*122 FILLER_4_13
*123 FILLER_4_20
*124 FILLER_4_29
*125 FILLER_4_41
*126 FILLER_4_53
*127 FILLER_4_62
*128 FILLER_4_70
*129 FILLER_4_76
*130 FILLER_5_19
*131 FILLER_5_23
*132 FILLER_5_41
*133 FILLER_5_45
*134 FILLER_5_57
*135 FILLER_5_63
*136 FILLER_5_69
*137 FILLER_6_26
*138 FILLER_6_29
*139 FILLER_6_44
*140 FILLER_6_58
*141 FILLER_6_76
*142 FILLER_7_10
*143 FILLER_7_14
*144 FILLER_7_19
*145 FILLER_7_3
*146 FILLER_7_37
*147 FILLER_7_46
*148 FILLER_7_50
*149 FILLER_7_55
*150 FILLER_7_57
*151 FILLER_7_69
*152 FILLER_8_27
*153 FILLER_8_29
*154 FILLER_8_48
*155 FILLER_8_7
*156 FILLER_8_70
*157 FILLER_8_78
*158 FILLER_9_10
*159 FILLER_9_22
*160 FILLER_9_29
*161 FILLER_9_38
*162 FILLER_9_50
*163 FILLER_9_57
*164 FILLER_9_63
*165 FILLER_9_75
*166 PHY_EDGE_ROW_0_Left_10
*167 PHY_EDGE_ROW_0_Right_0
*168 PHY_EDGE_ROW_1_Left_11
*169 PHY_EDGE_ROW_1_Right_1
*170 PHY_EDGE_ROW_2_Left_12
*171 PHY_EDGE_ROW_2_Right_2
*172 PHY_EDGE_ROW_3_Left_13
*173 PHY_EDGE_ROW_3_Right_3
*174 PHY_EDGE_ROW_4_Left_14
*175 PHY_EDGE_ROW_4_Right_4
*176 PHY_EDGE_ROW_5_Left_15
*177 PHY_EDGE_ROW_5_Right_5
*178 PHY_EDGE_ROW_6_Left_16
*179 PHY_EDGE_ROW_6_Right_6
*180 PHY_EDGE_ROW_7_Left_17
*181 PHY_EDGE_ROW_7_Right_7
*182 PHY_EDGE_ROW_8_Left_18
*183 PHY_EDGE_ROW_8_Right_8
*184 PHY_EDGE_ROW_9_Left_19
*185 PHY_EDGE_ROW_9_Right_9
*186 TAP_TAPCELL_ROW_0_20
*187 TAP_TAPCELL_ROW_0_21
*188 TAP_TAPCELL_ROW_1_22
*189 TAP_TAPCELL_ROW_2_23
*190 TAP_TAPCELL_ROW_3_24
*191 TAP_TAPCELL_ROW_4_25
*192 TAP_TAPCELL_ROW_5_26
*193 TAP_TAPCELL_ROW_6_27
*194 TAP_TAPCELL_ROW_7_28
*195 TAP_TAPCELL_ROW_8_29
*196 TAP_TAPCELL_ROW_9_30
*197 TAP_TAPCELL_ROW_9_31
*198 _058_
*199 _059_
*200 _060_
*201 _061_
*202 _062_
*203 _063_
*204 _064_
*205 _065_
*206 _066_
*207 _067_
*208 _068_
*209 _069_
*210 _070_
*211 _071_
*212 _072_
*213 _073_
*214 _074_
*215 _075_
*216 _076_
*217 _077_
*218 _078_
*219 _079_
*220 _080_
*221 _081_
*222 _082_
*223 _083_
*224 _084_
*225 _085_
*226 _086_
*227 _087_
*228 _088_
*229 _089_
*230 _090_
*231 _091_
*232 _092_
*233 _093_
*234 _094_
*235 _095_
*236 _096_
*237 _097_
*238 _098_
*239 _099_
*240 _100_
*241 _101_
*242 _102_
*243 _103_
*244 _104_
*245 _105_
*246 _106_
*247 _107_
*248 _108_
*249 _109_
*250 _110_
*251 _111_
*252 _112_
*253 _113_
*254 _114_
*255 _115_
*256 _116_
*257 _117_
*258 _118_
*259 _119_
*260 _120_
*261 _121_
*262 _122_
*263 input1
*264 input2
*265 input3
*266 input4
*267 input5
*268 input6
*269 input7
*270 input8
*271 mult4_SarsaNStepsRuido_e9_SARSA_RUIDO_e9_SARSA_RUIDO_e9_SARSA_RUIDO_e9_16
*272 output10
*273 output11
*274 output12
*275 output13
*276 output14
*277 output15
*278 output9

*PORTS
A[0] I
A[1] I
A[2] I
A[3] I
B[0] I
B[1] I
B[2] I
B[3] I
P[0] O
P[1] O
P[2] O
P[3] O
P[4] O
P[5] O
P[6] O
P[7] O

*D_NET *1 0.000640458
*CONN
*P A[0] I
*I *263:A I *D sky130_fd_sc_hd__dlymetal6s2s_1
*CAP
1 A[0] 0.000290849
2 *263:A 0.000290849
3 *263:A *223:C 0
4 *263:A *267:A 2.99915e-05
5 *263:A *269:A 0
6 *263:A *270:A 2.87684e-05
*RES
1 A[0] *263:A 21.0874 
*END

*D_NET *2 0.000866258
*CONN
*P A[1] I
*I *264:A I *D sky130_fd_sc_hd__clkbuf_2
*CAP
1 A[1] 0.000416275
2 *264:A 0.000416275
3 *264:A *268:A 3.37077e-05
4 *264:A *84:30 0
*RES
1 A[1] *264:A 23.016 
*END

*D_NET *3 0.000636125
*CONN
*P A[2] I
*I *265:A I *D sky130_fd_sc_hd__clkbuf_2
*CAP
1 A[2] 0.000302093
2 *265:A 0.000302093
3 *265:A *266:A 3.19385e-05
*RES
1 A[2] *265:A 20.891 
*END

*D_NET *4 0.000940356
*CONN
*P A[3] I
*I *266:A I *D sky130_fd_sc_hd__buf_1
*CAP
1 A[3] 0.000385227
2 *266:A 0.000385227
3 *266:A *240:A3 0.000115369
4 *266:A *269:A 2.25951e-05
5 *266:A *270:A 0
6 *266:A *85:10 0
7 *265:A *266:A 3.19385e-05
*RES
1 A[3] *266:A 20.5361 
*END

*D_NET *5 0.000693258
*CONN
*P B[0] I
*I *267:A I *D sky130_fd_sc_hd__dlymetal6s2s_1
*CAP
1 B[0] 0.000320845
2 *267:A 0.000320845
3 *267:A *268:A 2.15768e-05
4 *267:A *84:41 0
5 *263:A *267:A 2.99915e-05
*RES
1 B[0] *267:A 21.6946 
*END

*D_NET *6 0.000658796
*CONN
*P B[1] I
*I *268:A I *D sky130_fd_sc_hd__dlymetal6s2s_1
*CAP
1 B[1] 0.000301755
2 *268:A 0.000301755
3 *264:A *268:A 3.37077e-05
4 *267:A *268:A 2.15768e-05
*RES
1 B[1] *268:A 21.0874 
*END

*D_NET *7 0.000728562
*CONN
*P B[2] I
*I *269:A I *D sky130_fd_sc_hd__buf_1
*CAP
1 B[2] 0.000337014
2 *269:A 0.000337014
3 *269:A *270:A 3.19385e-05
4 *263:A *269:A 0
5 *266:A *269:A 2.25951e-05
*RES
1 B[2] *269:A 21.9981 
*END

*D_NET *8 0.0013133
*CONN
*P B[3] I
*I *270:A I *D sky130_fd_sc_hd__clkbuf_2
*CAP
1 B[3] 0.000441588
2 *270:A 0.000441588
3 *270:A *223:C 4.52531e-05
4 *270:A *20:10 0
5 *270:A *90:8 0.000119618
6 *270:A *90:14 0.00020455
7 *263:A *270:A 2.87684e-05
8 *266:A *270:A 0
9 *269:A *270:A 3.19385e-05
*RES
1 B[3] *270:A 23.3556 
*END

*D_NET *9 0.000450325
*CONN
*P P[0] O
*I *271:LO O *D sky130_fd_sc_hd__conb_1
*CAP
1 P[0] 0.000186854
2 *271:LO 0.000186854
3 P[0] P[3] 7.66163e-05
*RES
1 *271:LO P[0] 18.1229 
*END

*D_NET *10 0.000957631
*CONN
*P P[1] O
*I *278:X O *D sky130_fd_sc_hd__buf_2
*CAP
1 P[1] 0.000472597
2 *278:X 0.000472597
3 P[1] *208:A 1.24368e-05
*RES
1 *278:X P[1] 22.05 
*END

*D_NET *11 0.00098325
*CONN
*P P[2] O
*I *272:X O *D sky130_fd_sc_hd__buf_2
*CAP
1 P[2] 0.00046401
2 *272:X 0.00046401
3 P[2] *272:A 5.52302e-05
*RES
1 *272:X P[2] 22.05 
*END

*D_NET *12 0.00053242
*CONN
*P P[3] O
*I *273:X O *D sky130_fd_sc_hd__buf_2
*CAP
1 P[3] 0.000181464
2 *273:X 0.000181464
3 P[3] P[4] 9.28756e-05
4 P[0] P[3] 7.66163e-05
*RES
1 *273:X P[3] 18.4985 
*END

*D_NET *13 0.000684309
*CONN
*P P[4] O
*I *274:X O *D sky130_fd_sc_hd__buf_2
*CAP
1 P[4] 0.000237006
2 *274:X 0.000237006
3 P[4] P[5] 0
4 P[4] *274:A 0.000117421
5 P[3] P[4] 9.28756e-05
*RES
1 *274:X P[4] 19.4092 
*END

*D_NET *14 0.000482632
*CONN
*P P[5] O
*I *275:X O *D sky130_fd_sc_hd__buf_2
*CAP
1 P[5] 0.000241316
2 *275:X 0.000241316
3 P[5] P[6] 0
4 P[5] *253:A 0
5 P[4] P[5] 0
*RES
1 *275:X P[5] 18.1949 
*END

*D_NET *15 0.000645473
*CONN
*P P[6] O
*I *276:X O *D sky130_fd_sc_hd__buf_2
*CAP
1 P[6] 0.000303094
2 *276:X 0.000303094
3 P[6] *276:A 3.92854e-05
4 P[5] P[6] 0
*RES
1 *276:X P[6] 19.4092 
*END

*D_NET *16 0.000911701
*CONN
*P P[7] O
*I *277:X O *D sky130_fd_sc_hd__buf_2
*CAP
1 P[7] 0.00045585
2 *277:X 0.00045585
*RES
1 *277:X P[7] 22.8536 
*END

*D_NET *19 0.000947387
*CONN
*I *226:A1 I *D sky130_fd_sc_hd__a211o_1
*I *198:Y O *D sky130_fd_sc_hd__inv_2
*CAP
1 *226:A1 0.000362841
2 *198:Y 0.000362841
3 *226:A1 *206:A 2.14757e-05
4 *226:A1 *206:B 0.000136958
5 *226:A1 *219:B1 0
6 *226:A1 *226:A2 1.02504e-05
7 *226:A1 *84:64 5.30209e-05
8 *226:A1 *86:33 0
*RES
1 *198:Y *226:A1 32.6536 
*END

*D_NET *20 0.00178205
*CONN
*I *242:A1 I *D sky130_fd_sc_hd__a211o_1
*I *240:A2 I *D sky130_fd_sc_hd__a31oi_1
*I *199:Y O *D sky130_fd_sc_hd__inv_2
*CAP
1 *242:A1 0.000122065
2 *240:A2 0.000102518
3 *199:Y 0.000115525
4 *20:10 0.000340108
5 *240:A2 *240:A1 9.60875e-05
6 *240:A2 *85:25 5.33005e-05
7 *242:A1 *240:A1 5.32166e-05
8 *242:A1 *242:A2 0.000316169
9 *242:A1 *242:B1 7.29515e-05
10 *242:A1 *260:B1 3.48705e-05
11 *242:A1 *85:25 0.000144941
12 *242:A1 *89:57 0.00019776
13 *20:10 *240:B1 5.41794e-05
14 *20:10 *241:B 7.83587e-05
15 *20:10 *85:29 0
16 *20:10 *90:8 0
17 *270:A *20:10 0
*RES
1 *199:Y *20:10 20.55 
2 *20:10 *240:A2 11.3893 
3 *20:10 *242:A1 14.925 
*END

*D_NET *21 0.00161464
*CONN
*I *207:B I *D sky130_fd_sc_hd__nand2_1
*I *209:S I *D sky130_fd_sc_hd__mux2_1
*I *201:A I *D sky130_fd_sc_hd__inv_2
*I *200:X O *D sky130_fd_sc_hd__and3_1
*CAP
1 *207:B 0.000197142
2 *209:S 0
3 *201:A 3.64675e-05
4 *200:X 2.19324e-05
5 *21:19 0.000400508
6 *21:6 0.000261765
7 *201:A *84:12 3.99614e-06
8 *207:B *208:B 7.29667e-05
9 *207:B *209:A0 3.51442e-05
10 *207:B *230:A1 2.8266e-06
11 *207:B *50:14 5.71472e-05
12 *207:B *88:19 0
13 *207:B *88:58 0
14 *21:6 *203:B1 1.33343e-05
15 *21:6 *208:A 2.27416e-05
16 *21:19 *203:B1 5.71472e-05
17 *21:19 *208:A 0.00011674
18 *21:19 *208:B 0.000179537
19 *21:19 *209:A0 0.000127439
20 *21:19 *278:A 7.80714e-06
*RES
1 *200:X *21:6 9.83571 
2 *21:6 *201:A 10.0321 
3 *21:6 *21:19 9.85714 
4 *21:19 *209:S 13.8 
5 *21:19 *207:B 17.7107 
*END

*D_NET *22 0.0004195
*CONN
*I *203:B1 I *D sky130_fd_sc_hd__o211a_1
*I *201:Y O *D sky130_fd_sc_hd__inv_2
*CAP
1 *203:B1 0.000174509
2 *201:Y 0.000174509
3 *203:B1 *200:B 0
4 *203:B1 *208:B 0
5 *203:B1 *87:14 0
6 *21:6 *203:B1 1.33343e-05
7 *21:19 *203:B1 5.71472e-05
*RES
1 *201:Y *203:B1 30.0821 
*END

*D_NET *23 9.72117e-05
*CONN
*I *203:C1 I *D sky130_fd_sc_hd__o211a_1
*I *202:X O *D sky130_fd_sc_hd__a21o_1
*CAP
1 *203:C1 2.00323e-05
2 *202:X 2.00323e-05
3 *203:C1 *203:A1 5.71472e-05
*RES
1 *202:X *203:C1 19.1357 
*END

*D_NET *24 0.00526145
*CONN
*I *243:A I *D sky130_fd_sc_hd__and3_1
*I *218:A I *D sky130_fd_sc_hd__or4bb_1
*I *244:A1 I *D sky130_fd_sc_hd__a21o_1
*I *213:A I *D sky130_fd_sc_hd__nor2_1
*I *212:A I *D sky130_fd_sc_hd__and2_1
*I *204:X O *D sky130_fd_sc_hd__and2_1
*CAP
1 *243:A 0.000102235
2 *218:A 0
3 *244:A1 0.000333084
4 *213:A 0.000102265
5 *212:A 0
6 *204:X 0.000494822
7 *24:38 0.000370529
8 *24:34 0.000378476
9 *24:18 0.000394795
10 *24:12 0.00102615
11 *213:A *213:B 0.000130869
12 *213:A *236:A1 5.7661e-06
13 *213:A *30:6 4.88637e-05
14 *213:A *31:10 9.99853e-05
15 *213:A *32:6 0.00014285
16 *213:A *32:19 1.24368e-05
17 *243:A *216:A 0
18 *243:A *218:B 0.000114759
19 *243:A *221:B 0
20 *244:A1 *216:A 7.54868e-05
21 *244:A1 *218:B 6.05161e-06
22 *244:A1 *220:B 1.5424e-05
23 *244:A1 *243:C 8.2607e-05
24 *244:A1 *26:36 0.000110862
25 *244:A1 *36:10 2.38651e-06
26 *244:A1 *36:21 1.73875e-05
27 *244:A1 *43:15 9.77414e-05
28 *24:12 *217:B 0.00014183
29 *24:12 *227:A 5.82049e-05
30 *24:12 *227:B 7.48301e-06
31 *24:12 *36:10 5.19842e-06
32 *24:12 *45:14 3.18676e-05
33 *24:12 *46:6 5.52238e-05
34 *24:12 *47:8 0.000172661
35 *24:18 *26:36 0.000154124
36 *24:18 *31:10 9.83442e-05
37 *24:34 *218:B 8.15095e-05
38 *24:34 *26:36 0.000180965
39 *24:38 *218:B 1.21258e-05
40 *24:38 *220:B 9.60875e-05
*RES
1 *204:X *24:12 21.05 
2 *24:12 *24:18 10.125 
3 *24:18 *212:A 9.3 
4 *24:18 *213:A 12.7286 
5 *24:12 *24:34 5.58929 
6 *24:34 *24:38 5.44643 
7 *24:38 *244:A1 23.8 
8 *24:38 *218:A 9.3 
9 *24:34 *243:A 15.7464 
*END

*D_NET *25 0.000687114
*CONN
*I *219:B2 I *D sky130_fd_sc_hd__a32o_1
*I *205:Y O *D sky130_fd_sc_hd__nand2_1
*CAP
1 *219:B2 0.000327623
2 *205:Y 0.000327623
3 *219:B2 *45:14 0
4 *219:B2 *86:33 0
5 *219:B2 *87:56 3.18676e-05
*RES
1 *205:Y *219:B2 31.8321 
*END

*D_NET *26 0.00392814
*CONN
*I *210:A I *D sky130_fd_sc_hd__nor2_1
*I *211:A I *D sky130_fd_sc_hd__xor2_1
*I *218:D_N I *D sky130_fd_sc_hd__or4bb_1
*I *219:A3 I *D sky130_fd_sc_hd__a32o_1
*I *206:Y O *D sky130_fd_sc_hd__nand2_1
*CAP
1 *210:A 0
2 *211:A 8.03538e-05
3 *218:D_N 0
4 *219:A3 0
5 *206:Y 0.000416912
6 *26:36 0.000704184
7 *26:15 0.000708154
8 *26:8 0.000501236
9 *211:A *210:B 0.000230431
10 *26:8 *216:A 8.81471e-06
11 *26:8 *219:B1 1.02337e-05
12 *26:8 *84:64 0.000314549
13 *26:15 *216:A 4.43256e-05
14 *26:15 *218:C_N 5.49544e-05
15 *26:15 *220:B 0.000141131
16 *26:36 *210:B 1.64713e-05
17 *26:36 *218:B 5.43543e-05
18 *26:36 *220:B 0.00013921
19 *26:36 *30:6 5.68722e-05
20 *26:36 *45:14 0
21 *244:A1 *26:36 0.000110862
22 *24:18 *26:36 0.000154124
23 *24:34 *26:36 0.000180965
*RES
1 *206:Y *26:8 15.3893 
2 *26:8 *219:A3 9.3 
3 *26:8 *26:15 2.17857 
4 *26:15 *218:D_N 9.3 
5 *26:15 *26:36 21.9286 
6 *26:36 *211:A 11.4786 
7 *26:36 *210:A 9.3 
*END

*D_NET *27 0.0013089
*CONN
*I *227:A I *D sky130_fd_sc_hd__nor2_1
*I *228:A I *D sky130_fd_sc_hd__xnor2_1
*I *207:Y O *D sky130_fd_sc_hd__nand2_1
*CAP
1 *227:A 4.7565e-05
2 *228:A 0
3 *207:Y 0.000339711
4 *27:12 0.000387276
5 *227:A *227:B 0.000228514
6 *227:A *47:8 5.65955e-05
7 *27:12 *217:A 0
8 *27:12 *45:14 1.76135e-05
9 *27:12 *50:14 0.00017342
10 *24:12 *227:A 5.82049e-05
*RES
1 *207:Y *27:12 23.2464 
2 *27:12 *228:A 9.3 
3 *27:12 *227:A 11.4786 
*END

*D_NET *28 0.000481531
*CONN
*I *209:A0 I *D sky130_fd_sc_hd__mux2_1
*I *208:Y O *D sky130_fd_sc_hd__nand2_1
*CAP
1 *209:A0 9.65328e-05
2 *208:Y 9.65328e-05
3 *209:A0 *278:A 7.25388e-05
4 *209:A0 *88:47 2.89114e-05
5 *209:A0 *88:58 2.44318e-05
6 *207:B *209:A0 3.51442e-05
7 *21:19 *209:A0 0.000127439
*RES
1 *208:Y *209:A0 30.4929 
*END

*D_NET *29 0.00087206
*CONN
*I *210:B I *D sky130_fd_sc_hd__nor2_1
*I *211:B I *D sky130_fd_sc_hd__xor2_1
*I *209:X O *D sky130_fd_sc_hd__mux2_1
*CAP
1 *210:B 0.000126084
2 *211:B 0
3 *209:X 8.11159e-05
4 *29:8 0.0002072
5 *210:B *30:6 3.13687e-05
6 *210:B *31:10 0.000179389
7 *211:A *210:B 0.000230431
8 *26:36 *210:B 1.64713e-05
*RES
1 *209:X *29:8 10.675 
2 *29:8 *211:B 9.3 
3 *29:8 *210:B 13.1393 
*END

*D_NET *30 0.00168283
*CONN
*I *261:A I *D sky130_fd_sc_hd__or3_1
*I *236:A1 I *D sky130_fd_sc_hd__o21ai_1
*I *210:Y O *D sky130_fd_sc_hd__nor2_1
*CAP
1 *261:A 0.000110082
2 *236:A1 2.03441e-05
3 *210:Y 0.000264508
4 *30:6 0.000394934
5 *236:A1 *261:C 0
6 *261:A *261:B 3.48705e-05
7 *261:A *261:C 8.81983e-05
8 *261:A *32:19 1.74352e-05
9 *261:A *55:14 0.000192435
10 *30:6 *213:B 0.000144075
11 *30:6 *31:10 0.00024004
12 *30:6 *32:19 3.30352e-05
13 *210:B *30:6 3.13687e-05
14 *213:A *236:A1 5.7661e-06
15 *213:A *30:6 4.88637e-05
16 *26:36 *30:6 5.68722e-05
*RES
1 *210:Y *30:6 15.175 
2 *30:6 *236:A1 9.72857 
3 *30:6 *261:A 12.7286 
*END

*D_NET *31 0.00124896
*CONN
*I *213:B I *D sky130_fd_sc_hd__nor2_1
*I *212:B I *D sky130_fd_sc_hd__and2_1
*I *211:X O *D sky130_fd_sc_hd__xor2_1
*CAP
1 *213:B 1.64949e-05
2 *212:B 0
3 *211:X 0.000161633
4 *31:10 0.000178128
5 *210:B *31:10 0.000179389
6 *213:A *213:B 0.000130869
7 *213:A *31:10 9.99853e-05
8 *24:18 *31:10 9.83442e-05
9 *30:6 *213:B 0.000144075
10 *30:6 *31:10 0.00024004
*RES
1 *211:X *31:10 13.9786 
2 *31:10 *212:B 9.3 
3 *31:10 *213:B 10.6571 
*END

*D_NET *32 0.00117007
*CONN
*I *261:B I *D sky130_fd_sc_hd__or3_1
*I *236:A2 I *D sky130_fd_sc_hd__o21ai_1
*I *214:A I *D sky130_fd_sc_hd__nor2_1
*I *212:X O *D sky130_fd_sc_hd__and2_1
*CAP
1 *261:B 0.000117234
2 *236:A2 0
3 *214:A 9.98713e-05
4 *212:X 6.81261e-05
5 *32:19 0.000182389
6 *32:6 0.000233152
7 *214:A *214:B 8.39e-05
8 *261:B *261:C 0.000144773
9 *213:A *32:6 0.00014285
10 *213:A *32:19 1.24368e-05
11 *261:A *261:B 3.48705e-05
12 *261:A *32:19 1.74352e-05
13 *30:6 *32:19 3.30352e-05
*RES
1 *212:X *32:6 10.6571 
2 *32:6 *214:A 20.55 
3 *32:6 *32:19 1.35714 
4 *32:19 *236:A2 9.3 
5 *32:19 *261:B 11.9071 
*END

*D_NET *33 0.000240232
*CONN
*I *214:B I *D sky130_fd_sc_hd__nor2_1
*I *213:Y O *D sky130_fd_sc_hd__nor2_1
*CAP
1 *214:B 7.8166e-05
2 *213:Y 7.8166e-05
3 *214:A *214:B 8.39e-05
*RES
1 *213:Y *214:B 29.5464 
*END

*D_NET *34 0.00366428
*CONN
*I *221:A I *D sky130_fd_sc_hd__or2_1
*I *222:A I *D sky130_fd_sc_hd__xor2_1
*I *254:C I *D sky130_fd_sc_hd__and3_1
*I *215:Y O *D sky130_fd_sc_hd__nand2_1
*CAP
1 *221:A 0
2 *222:A 0.000110525
3 *254:C 0
4 *215:Y 0.000361782
5 *34:21 0.000837797
6 *34:6 0.00108905
7 *222:A *220:A 1.65558e-05
8 *222:A *220:B 9.60875e-05
9 *222:A *221:B 0.000146474
10 *222:A *250:A1 1.00375e-05
11 *222:A *37:19 3.28804e-05
12 *222:A *39:6 5.52302e-05
13 *34:6 *226:A2 6.30173e-05
14 *34:6 *254:A 5.52238e-05
15 *34:6 *254:B 2.29377e-05
16 *34:6 *89:49 5.30637e-06
17 *34:21 *245:A_N 5.49489e-05
18 *34:21 *245:B 1.85462e-05
19 *34:21 *249:C 0
20 *34:21 *250:A1 3.01126e-05
21 *34:21 *250:A2 0.000154762
22 *34:21 *257:B 0.0002302
23 *34:21 *61:21 0.000229275
24 *34:21 *71:8 4.3532e-05
*RES
1 *215:Y *34:6 14.0143 
2 *34:6 *254:C 9.3 
3 *34:6 *34:21 16.8929 
4 *34:21 *222:A 16.9964 
5 *34:21 *221:A 13.8 
*END

*D_NET *35 0.000803479
*CONN
*I *218:B I *D sky130_fd_sc_hd__or4bb_1
*I *216:Y O *D sky130_fd_sc_hd__nand2_1
*CAP
1 *218:B 0.000243469
2 *216:Y 0.000243469
3 *218:B *216:A 4.77415e-05
4 *243:A *218:B 0.000114759
5 *244:A1 *218:B 6.05161e-06
6 *24:34 *218:B 8.15095e-05
7 *24:38 *218:B 1.21258e-05
8 *26:36 *218:B 5.43543e-05
*RES
1 *216:Y *218:B 31.6357 
*END

*D_NET *36 0.00285791
*CONN
*I *243:B I *D sky130_fd_sc_hd__and3_1
*I *244:A2 I *D sky130_fd_sc_hd__a21o_1
*I *219:B1 I *D sky130_fd_sc_hd__a32o_1
*I *218:C_N I *D sky130_fd_sc_hd__or4bb_1
*I *217:X O *D sky130_fd_sc_hd__and2_1
*CAP
1 *243:B 0.000259587
2 *244:A2 0
3 *219:B1 0.000182883
4 *218:C_N 2.80192e-05
5 *217:X 0.000276161
6 *36:25 0.000216539
7 *36:21 0.00042395
8 *36:10 0.000434888
9 *219:B1 *219:A2 6.73361e-05
10 *219:B1 *226:A2 4.1331e-06
11 *219:B1 *43:15 0.000183726
12 *219:B1 *84:64 2.39852e-05
13 *219:B1 *86:33 0
14 *219:B1 *90:58 5.03772e-05
15 *219:B1 *90:60 5.41797e-06
16 *243:B *216:A 1.69395e-05
17 *243:B *243:C 1.03037e-05
18 *243:B *245:B 2.36643e-05
19 *243:B *254:A 0
20 *243:B *43:15 1.03105e-05
21 *243:B *61:12 9.83388e-05
22 *243:B *90:60 0
23 *36:10 *227:B 5.68713e-05
24 *36:10 *45:14 0.000187774
25 *36:21 *216:A 5.15952e-05
26 *36:21 *219:A2 0
27 *36:21 *45:14 6.9253e-05
28 *36:25 *43:15 8.57023e-05
29 *226:A1 *219:B1 0
30 *244:A1 *36:10 2.38651e-06
31 *244:A1 *36:21 1.73875e-05
32 *24:12 *36:10 5.19842e-06
33 *26:8 *219:B1 1.02337e-05
34 *26:15 *218:C_N 5.49544e-05
*RES
1 *217:X *36:10 19.2286 
2 *36:10 *218:C_N 14.3357 
3 *36:10 *36:21 2.55357 
4 *36:21 *36:25 5.44643 
5 *36:25 *219:B1 22.5589 
6 *36:25 *244:A2 9.3 
7 *36:21 *243:B 17.425 
*END

*D_NET *37 0.0021921
*CONN
*I *250:A1 I *D sky130_fd_sc_hd__a21oi_1
*I *249:A I *D sky130_fd_sc_hd__and3_1
*I *220:A I *D sky130_fd_sc_hd__nand2_1
*I *218:X O *D sky130_fd_sc_hd__or4bb_1
*CAP
1 *250:A1 9.5427e-05
2 *249:A 0
3 *220:A 4.14843e-05
4 *218:X 0.000381875
5 *37:19 0.000156899
6 *37:8 0.000484831
7 *250:A1 *249:C 0.000250193
8 *250:A1 *250:A2 8.15939e-05
9 *250:A1 *257:B 2.89016e-05
10 *37:8 *220:B 0.000571055
11 *37:19 *249:C 1.02504e-05
12 *37:19 *251:A 0
13 *222:A *220:A 1.65558e-05
14 *222:A *250:A1 1.00375e-05
15 *222:A *37:19 3.28804e-05
16 *34:21 *250:A1 3.01126e-05
*RES
1 *218:X *37:8 19.2643 
2 *37:8 *220:A 14.5321 
3 *37:8 *37:19 1.33929 
4 *37:19 *249:A 13.8 
5 *37:19 *250:A1 17.4964 
*END

*D_NET *38 0.00206334
*CONN
*I *220:B I *D sky130_fd_sc_hd__nand2_1
*I *219:X O *D sky130_fd_sc_hd__a32o_1
*CAP
1 *220:B 0.000374026
2 *219:X 0.000374026
3 *220:B *216:A 0.000141131
4 *220:B *39:6 9.77274e-05
5 *220:B *41:10 1.74352e-05
6 *222:A *220:B 9.60875e-05
7 *244:A1 *220:B 1.5424e-05
8 *24:38 *220:B 9.60875e-05
9 *26:15 *220:B 0.000141131
10 *26:36 *220:B 0.00013921
11 *37:8 *220:B 0.000571055
*RES
1 *219:X *220:B 29.0107 
*END

*D_NET *39 0.000850246
*CONN
*I *222:B I *D sky130_fd_sc_hd__xor2_1
*I *221:B I *D sky130_fd_sc_hd__or2_1
*I *220:Y O *D sky130_fd_sc_hd__nand2_1
*CAP
1 *222:B 0
2 *221:B 0.000160856
3 *220:Y 6.40711e-05
4 *39:6 0.000224927
5 *39:6 *41:10 0.00010096
6 *220:B *39:6 9.77274e-05
7 *222:A *221:B 0.000146474
8 *222:A *39:6 5.52302e-05
9 *243:A *221:B 0
*RES
1 *220:Y *39:6 11.4786 
2 *39:6 *221:B 21.0857 
3 *39:6 *222:B 9.3 
*END

*D_NET *40 0.000673724
*CONN
*I *249:B I *D sky130_fd_sc_hd__and3_1
*I *250:A2 I *D sky130_fd_sc_hd__a21oi_1
*I *221:X O *D sky130_fd_sc_hd__or2_1
*CAP
1 *249:B 0.000119479
2 *250:A2 9.21839e-05
3 *221:X 0
4 *40:4 0.000211663
5 *249:B *249:C 1.40415e-05
6 *250:A1 *250:A2 8.15939e-05
7 *34:21 *250:A2 0.000154762
*RES
1 *221:X *40:4 9.3 
2 *40:4 *250:A2 20.7821 
3 *40:4 *249:B 10.6571 
*END

*D_NET *41 0.00122218
*CONN
*I *234:B1 I *D sky130_fd_sc_hd__o21a_1
*I *233:A I *D sky130_fd_sc_hd__nor3_1
*I *222:X O *D sky130_fd_sc_hd__xor2_1
*CAP
1 *234:B1 0
2 *233:A 0.000191054
3 *222:X 0.000297844
4 *41:10 0.000488898
5 *233:A *233:B 1.32552e-05
6 *233:A *233:C 5.30637e-06
7 *233:A *234:A2 6.97972e-05
8 *233:A *237:A 5.7661e-06
9 *233:A *252:A1 0
10 *233:A *52:8 3.18676e-05
11 *41:10 *252:A1 0
12 *41:10 *70:10 0
13 *220:B *41:10 1.74352e-05
14 *39:6 *41:10 0.00010096
*RES
1 *222:X *41:10 19.05 
2 *41:10 *233:A 17.2286 
3 *41:10 *234:B1 13.8 
*END

*D_NET *42 0.00142724
*CONN
*I *226:A2 I *D sky130_fd_sc_hd__a211o_1
*I *223:Y O *D sky130_fd_sc_hd__nand3b_1
*CAP
1 *226:A2 0.00036987
2 *223:Y 0.00036987
3 *226:A2 *223:B 0.000213202
4 *226:A2 *254:A 0
5 *226:A2 *254:B 0.000272371
6 *226:A2 *86:33 0
7 *226:A2 *89:49 0.000124521
8 *226:A2 *90:60 0
9 *219:B1 *226:A2 4.1331e-06
10 *226:A1 *226:A2 1.02504e-05
11 *34:6 *226:A2 6.30173e-05
*RES
1 *223:Y *226:A2 35.725 
*END

*D_NET *43 0.00175467
*CONN
*I *243:C I *D sky130_fd_sc_hd__and3_1
*I *244:B1 I *D sky130_fd_sc_hd__a21o_1
*I *226:B1 I *D sky130_fd_sc_hd__a211o_1
*I *224:X O *D sky130_fd_sc_hd__and4_1
*CAP
1 *243:C 7.75174e-05
2 *244:B1 2.37855e-05
3 *226:B1 1.63023e-05
4 *224:X 4.35163e-05
5 *43:15 0.00029064
6 *43:6 0.000249155
7 *226:B1 *226:C1 1.3701e-05
8 *243:C *216:A 0.000173019
9 *43:6 *226:C1 5.71472e-05
10 *43:6 *90:58 1.74352e-05
11 *43:15 *45:14 0.00022459
12 *43:15 *90:58 9.74668e-05
13 *219:B1 *43:15 0.000183726
14 *243:B *243:C 1.03037e-05
15 *243:B *43:15 1.03105e-05
16 *244:A1 *243:C 8.2607e-05
17 *244:A1 *43:15 9.77414e-05
18 *36:25 *43:15 8.57023e-05
*RES
1 *224:X *43:6 10.2464 
2 *43:6 *226:B1 9.72857 
3 *43:6 *43:15 5.46429 
4 *43:15 *244:B1 9.72857 
5 *43:15 *243:C 11.3625 
*END

*D_NET *44 0.000707227
*CONN
*I *226:C1 I *D sky130_fd_sc_hd__a211o_1
*I *225:X O *D sky130_fd_sc_hd__and2b_1
*CAP
1 *226:C1 0.000241817
2 *225:X 0.000241817
3 *226:C1 *224:D 1.04232e-05
4 *226:C1 *90:23 3.70084e-05
5 *226:C1 *90:47 4.35336e-05
6 *226:C1 *90:58 6.17786e-05
7 *226:B1 *226:C1 1.3701e-05
8 *43:6 *226:C1 5.71472e-05
*RES
1 *225:X *226:C1 23.1179 
*END

*D_NET *45 0.00234966
*CONN
*I *227:B I *D sky130_fd_sc_hd__nor2_1
*I *228:B I *D sky130_fd_sc_hd__xnor2_1
*I *226:X O *D sky130_fd_sc_hd__a211o_1
*CAP
1 *227:B 0.000200332
2 *228:B 0
3 *226:X 0.00050227
4 *45:14 0.000702602
5 *227:B *217:B 0
6 *227:B *47:8 7.03791e-05
7 *45:14 *217:A 0
8 *45:14 *219:A2 5.01117e-05
9 *219:B2 *45:14 0
10 *227:A *227:B 0.000228514
11 *24:12 *227:B 7.48301e-06
12 *24:12 *45:14 3.18676e-05
13 *26:36 *45:14 0
14 *27:12 *45:14 1.76135e-05
15 *36:10 *227:B 5.68713e-05
16 *36:10 *45:14 0.000187774
17 *36:21 *45:14 6.9253e-05
18 *43:15 *45:14 0.00022459
*RES
1 *226:X *45:14 27.8179 
2 *45:14 *228:B 9.3 
3 *45:14 *227:B 13.9964 
*END

*D_NET *46 0.00229233
*CONN
*I *233:B I *D sky130_fd_sc_hd__nor3_1
*I *234:A1 I *D sky130_fd_sc_hd__o21a_1
*I *227:Y O *D sky130_fd_sc_hd__nor2_1
*CAP
1 *233:B 0.000101607
2 *234:A1 0.00015275
3 *227:Y 0.000520556
4 *46:6 0.000774913
5 *233:B *233:C 8.76257e-05
6 *233:B *51:8 5.52302e-05
7 *233:B *52:8 0
8 *234:A1 *232:B 0
9 *234:A1 *234:A2 0.000202842
10 *46:6 *232:A 2.28598e-05
11 *46:6 *47:8 0.000114553
12 *46:6 *51:8 0.000190917
13 *233:A *233:B 1.32552e-05
14 *24:12 *46:6 5.52238e-05
*RES
1 *227:Y *46:6 16.4071 
2 *46:6 *234:A1 21.4607 
3 *46:6 *233:B 11.4964 
*END

*D_NET *47 0.0011809
*CONN
*I *232:A I *D sky130_fd_sc_hd__nor2_1
*I *235:A I *D sky130_fd_sc_hd__xor2_1
*I *228:Y O *D sky130_fd_sc_hd__xnor2_1
*CAP
1 *232:A 4.36523e-05
2 *235:A 0.000144147
3 *228:Y 0.000155805
4 *47:8 0.000343605
5 *232:A *51:8 5.7661e-06
6 *235:A *232:B 5.08737e-05
7 *227:A *47:8 5.65955e-05
8 *227:B *47:8 7.03791e-05
9 *24:12 *47:8 0.000172661
10 *46:6 *232:A 2.28598e-05
11 *46:6 *47:8 0.000114553
*RES
1 *228:Y *47:8 13.55 
2 *47:8 *235:A 20.8536 
3 *47:8 *232:A 10.2643 
*END

*D_NET *48 0.000502178
*CONN
*I *231:A3 I *D sky130_fd_sc_hd__a31o_1
*I *229:X O *D sky130_fd_sc_hd__or2_1
*CAP
1 *231:A3 9.04083e-05
2 *229:X 9.04083e-05
3 *231:A3 *229:B 0.000123288
4 *231:A3 *231:A2 9.90367e-05
5 *231:A3 *231:B1 9.90367e-05
6 *231:A3 *87:10 0
7 *231:A3 *87:12 0
*RES
1 *229:X *231:A3 30.1893 
*END

*D_NET *49 0.000671824
*CONN
*I *231:B1 I *D sky130_fd_sc_hd__a31o_1
*I *230:Y O *D sky130_fd_sc_hd__a22oi_1
*CAP
1 *231:B1 0.000185066
2 *230:Y 0.000185066
3 *231:B1 *204:B 1.56e-05
4 *231:B1 *230:A2 1.35864e-05
5 *231:B1 *230:B1 1.28447e-05
6 *231:B1 *231:A2 9.15646e-05
7 *231:B1 *85:52 1.3828e-05
8 *231:B1 *86:44 5.52302e-05
9 *231:A3 *231:B1 9.90367e-05
*RES
1 *230:Y *231:B1 22.5643 
*END

*D_NET *50 0.00298335
*CONN
*I *232:B I *D sky130_fd_sc_hd__nor2_1
*I *235:B I *D sky130_fd_sc_hd__xor2_1
*I *231:X O *D sky130_fd_sc_hd__a31o_1
*CAP
1 *232:B 0.000258613
2 *235:B 0
3 *231:X 0.000849726
4 *50:14 0.00110834
5 *50:14 *217:A 4.35048e-05
6 *50:14 *217:B 0.000258011
7 *50:14 *230:A1 0
8 *50:14 *231:A2 9.60939e-05
9 *50:14 *86:44 8.76257e-05
10 *207:B *50:14 5.71472e-05
11 *234:A1 *232:B 0
12 *235:A *232:B 5.08737e-05
13 *27:12 *50:14 0.00017342
*RES
1 *231:X *50:14 32.925 
2 *50:14 *235:B 9.3 
3 *50:14 *232:B 22.6214 
*END

*D_NET *51 0.00124679
*CONN
*I *233:C I *D sky130_fd_sc_hd__nor3_1
*I *234:A2 I *D sky130_fd_sc_hd__o21a_1
*I *232:Y O *D sky130_fd_sc_hd__nor2_1
*CAP
1 *233:C 4.73637e-05
2 *234:A2 8.06854e-05
3 *232:Y 0.00017672
4 *51:8 0.000304769
5 *233:C *52:8 1.97695e-05
6 *234:A2 *237:B 0
7 *234:A2 *252:A1 0
8 *232:A *51:8 5.7661e-06
9 *233:A *233:C 5.30637e-06
10 *233:A *234:A2 6.97972e-05
11 *233:B *233:C 8.76257e-05
12 *233:B *51:8 5.52302e-05
13 *234:A1 *234:A2 0.000202842
14 *46:6 *51:8 0.000190917
*RES
1 *232:Y *51:8 13.55 
2 *51:8 *234:A2 20.8536 
3 *51:8 *233:C 10.675 
*END

*D_NET *52 0.00109687
*CONN
*I *237:A I *D sky130_fd_sc_hd__or3_1
*I *238:A1 I *D sky130_fd_sc_hd__o21ai_1
*I *252:A1 I *D sky130_fd_sc_hd__o21bai_1
*I *233:Y O *D sky130_fd_sc_hd__nor3_1
*CAP
1 *237:A 0.000154192
2 *238:A1 0
3 *252:A1 0.000121613
4 *233:Y 0.000112119
5 *52:8 0.000387924
6 *237:A *237:B 8.25843e-06
7 *237:A *237:C 6.69094e-05
8 *237:A *239:B 3.71854e-05
9 *252:A1 *237:B 9.25014e-06
10 *252:A1 *252:A2 2.72545e-05
11 *252:A1 *53:10 0.000114759
12 *52:8 *237:C 0
13 *233:A *237:A 5.7661e-06
14 *233:A *252:A1 0
15 *233:A *52:8 3.18676e-05
16 *233:B *52:8 0
17 *233:C *52:8 1.97695e-05
18 *234:A2 *252:A1 0
19 *41:10 *252:A1 0
*RES
1 *233:Y *52:8 11.6929 
2 *52:8 *252:A1 20.55 
3 *52:8 *238:A1 9.3 
4 *52:8 *237:A 12.3357 
*END

*D_NET *53 0.00152701
*CONN
*I *252:B1_N I *D sky130_fd_sc_hd__o21bai_1
*I *238:A2 I *D sky130_fd_sc_hd__o21ai_1
*I *237:B I *D sky130_fd_sc_hd__or3_1
*I *234:X O *D sky130_fd_sc_hd__o21a_1
*CAP
1 *252:B1_N 0.000193252
2 *238:A2 0
3 *237:B 0.000144343
4 *234:X 0.000163223
5 *53:10 0.0001869
6 *53:6 0.000399032
7 *237:B *239:B 9.90431e-05
8 *237:B *252:A2 2.48938e-05
9 *237:B *55:23 5.83304e-05
10 *53:10 *252:A2 0.000125724
11 *234:A2 *237:B 0
12 *237:A *237:B 8.25843e-06
13 *252:A1 *237:B 9.25014e-06
14 *252:A1 *53:10 0.000114759
*RES
1 *234:X *53:6 11.0679 
2 *53:6 *53:10 6.14286 
3 *53:10 *237:B 16.1929 
4 *53:10 *238:A2 13.8 
5 *53:6 *252:B1_N 11.8 
*END

*D_NET *54 0.000965938
*CONN
*I *261:C I *D sky130_fd_sc_hd__or3_1
*I *236:B1 I *D sky130_fd_sc_hd__o21ai_1
*I *235:X O *D sky130_fd_sc_hd__xor2_1
*CAP
1 *261:C 4.31279e-05
2 *236:B1 0
3 *235:X 0.000323356
4 *54:12 0.000366484
5 *236:A1 *261:C 0
6 *261:A *261:C 8.81983e-05
7 *261:B *261:C 0.000144773
*RES
1 *235:X *54:12 23.3357 
2 *54:12 *236:B1 9.3 
3 *54:12 *261:C 11.0857 
*END

*D_NET *55 0.00229153
*CONN
*I *237:C I *D sky130_fd_sc_hd__or3_1
*I *238:B1 I *D sky130_fd_sc_hd__o21ai_1
*I *252:A2 I *D sky130_fd_sc_hd__o21bai_1
*I *262:A I *D sky130_fd_sc_hd__and2_1
*I *236:Y O *D sky130_fd_sc_hd__o21ai_1
*CAP
1 *237:C 2.91996e-05
2 *238:B1 0
3 *252:A2 0.000125138
4 *262:A 0
5 *236:Y 0.000397256
6 *55:36 7.59536e-05
7 *55:23 0.000303716
8 *55:14 0.00052908
9 *237:C *239:B 3.18676e-05
10 *55:14 *262:B 0.000297966
11 *55:23 *262:B 5.80706e-06
12 *237:A *237:C 6.69094e-05
13 *237:B *252:A2 2.48938e-05
14 *237:B *55:23 5.83304e-05
15 *252:A1 *252:A2 2.72545e-05
16 *261:A *55:14 0.000192435
17 *52:8 *237:C 0
18 *53:10 *252:A2 0.000125724
*RES
1 *236:Y *55:14 21.3536 
2 *55:14 *262:A 13.8 
3 *55:14 *55:23 2.55357 
4 *55:23 *252:A2 16.3536 
5 *55:23 *55:36 5.03571 
6 *55:36 *238:B1 9.3 
7 *55:36 *237:C 10.2643 
*END

*D_NET *56 0.000190871
*CONN
*I *239:A I *D sky130_fd_sc_hd__and2_1
*I *237:X O *D sky130_fd_sc_hd__or3_1
*CAP
1 *239:A 6.04355e-05
2 *237:X 6.04355e-05
3 *239:A *239:B 7.00005e-05
*RES
1 *237:X *239:A 19.975 
*END

*D_NET *57 0.000703684
*CONN
*I *239:B I *D sky130_fd_sc_hd__and2_1
*I *238:Y O *D sky130_fd_sc_hd__o21ai_1
*CAP
1 *239:B 0.000232794
2 *238:Y 0.000232794
3 *237:A *239:B 3.71854e-05
4 *237:B *239:B 9.90431e-05
5 *237:C *239:B 3.18676e-05
6 *239:A *239:B 7.00005e-05
*RES
1 *238:Y *239:B 23.6893 
*END

*D_NET *58 0.00100016
*CONN
*I *242:B1 I *D sky130_fd_sc_hd__a211o_1
*I *240:Y O *D sky130_fd_sc_hd__a31oi_1
*CAP
1 *242:B1 0.000288591
2 *240:Y 0.000288591
3 *242:B1 *240:A1 8.43535e-06
4 *242:B1 *240:B1 2.89016e-05
5 *242:B1 *260:B1 5.52302e-05
6 *242:B1 *59:6 5.52238e-05