*SPEF "ieee 1481-1999"
*DESIGN "SarsaNStepsRuido_e9"
*DATE "11:39:14 Friday September 12, 2025"
*VENDOR "The OpenROAD Project"
*PROGRAM "OpenROAD"
*VERSION "edf00dff99f6c40d67a30c0e22a8191c5d2ed9d6"
*DESIGN_FLOW "NAME_SCOPE LOCAL" "PIN_CAP NONE"
*DIVIDER /
*DELIMITER :
*BUS_DELIMITER []
*T_UNIT 1 NS
*C_UNIT 1 PF
*R_UNIT 1 OHM
*L_UNIT 1 HENRY

*NAME_MAP
*1 A[0]
*2 A[1]
*3 B[0]
*4 B[1]
*5 net8
*6 P[1]
*7 P[2]
*8 P[3]
*11 _0_
*12 _1_
*13 _2_
*14 net1
*15 net2
*16 net3
*17 net4
*18 net5
*19 net6
*20 net7
*21 FILLER_0_15
*22 FILLER_0_27
*23 FILLER_0_29
*24 FILLER_0_3
*25 FILLER_0_41
*26 FILLER_0_53
*27 FILLER_0_57
*28 FILLER_0_69
*29 FILLER_1_15
*30 FILLER_1_27
*31 FILLER_1_3
*32 FILLER_1_39
*33 FILLER_1_51
*34 FILLER_1_55
*35 FILLER_1_57
*36 FILLER_1_69
*37 FILLER_2_15
*38 FILLER_2_27
*39 FILLER_2_29
*40 FILLER_2_3
*41 FILLER_2_41
*42 FILLER_2_53
*43 FILLER_2_65
*44 FILLER_2_77
*45 FILLER_3_15
*46 FILLER_3_27
*47 FILLER_3_3
*48 FILLER_3_39
*49 FILLER_3_51
*50 FILLER_3_55
*51 FILLER_3_57
*52 FILLER_3_69
*53 FILLER_4_15
*54 FILLER_4_27
*55 FILLER_4_29
*56 FILLER_4_3
*57 FILLER_4_41
*58 FILLER_4_53
*59 FILLER_4_65
*60 FILLER_4_77
*61 FILLER_5_18
*62 FILLER_5_30
*63 FILLER_5_42
*64 FILLER_5_54
*65 FILLER_5_57
*66 FILLER_5_6
*67 FILLER_5_69
*68 FILLER_6_18
*69 FILLER_6_26
*70 FILLER_6_37
*71 FILLER_6_49
*72 FILLER_6_6
*73 FILLER_6_61
*74 FILLER_6_73
*75 FILLER_7_21
*76 FILLER_7_25
*77 FILLER_7_3
*78 FILLER_7_33
*79 FILLER_7_45
*80 FILLER_7_53
*81 FILLER_7_57
*82 FILLER_7_69
*83 FILLER_8_15
*84 FILLER_8_27
*85 FILLER_8_29
*86 FILLER_8_3
*87 FILLER_8_35
*88 FILLER_8_39
*89 FILLER_8_44
*90 FILLER_8_56
*91 FILLER_8_68
*92 FILLER_8_80
*93 FILLER_9_15
*94 FILLER_9_27
*95 FILLER_9_29
*96 FILLER_9_3
*97 FILLER_9_34
*98 FILLER_9_41
*99 FILLER_9_49
*100 FILLER_9_57
*101 FILLER_9_69
*102 PHY_EDGE_ROW_0_Left_10
*103 PHY_EDGE_ROW_0_Right_0
*104 PHY_EDGE_ROW_1_Left_11
*105 PHY_EDGE_ROW_1_Right_1
*106 PHY_EDGE_ROW_2_Left_12
*107 PHY_EDGE_ROW_2_Right_2
*108 PHY_EDGE_ROW_3_Left_13
*109 PHY_EDGE_ROW_3_Right_3
*110 PHY_EDGE_ROW_4_Left_14
*111 PHY_EDGE_ROW_4_Right_4
*112 PHY_EDGE_ROW_5_Left_15
*113 PHY_EDGE_ROW_5_Right_5
*114 PHY_EDGE_ROW_6_Left_16
*115 PHY_EDGE_ROW_6_Right_6
*116 PHY_EDGE_ROW_7_Left_17
*117 PHY_EDGE_ROW_7_Right_7
*118 PHY_EDGE_ROW_8_Left_18
*119 PHY_EDGE_ROW_8_Right_8
*120 PHY_EDGE_ROW_9_Left_19
*121 PHY_EDGE_ROW_9_Right_9
*122 SarsaNStepsRuido_e9_8
*123 TAP_TAPCELL_ROW_0_20
*124 TAP_TAPCELL_ROW_0_21
*125 TAP_TAPCELL_ROW_1_22
*126 TAP_TAPCELL_ROW_2_23
*127 TAP_TAPCELL_ROW_3_24
*128 TAP_TAPCELL_ROW_4_25
*129 TAP_TAPCELL_ROW_5_26
*130 TAP_TAPCELL_ROW_6_27
*131 TAP_TAPCELL_ROW_7_28
*132 TAP_TAPCELL_ROW_8_29
*133 TAP_TAPCELL_ROW_9_30
*134 TAP_TAPCELL_ROW_9_31
*135 _3_
*136 _4_
*137 _5_
*138 _6_
*139 _7_
*140 _8_
*141 input1
*142 input2
*143 input3
*144 input4
*145 output5
*146 output6
*147 output7

*PORTS
A[0] I
A[1] I
B[0] I
B[1] I
P[0] O
P[1] O
P[2] O
P[3] O

*D_NET *1 0.00053091
*CONN
*P A[0] I
*I *141:A I *D sky130_fd_sc_hd__buf_1
*CAP
1 A[0] 0.000251071
2 *141:A 0.000251071
3 *141:A *143:A 2.87684e-05
4 *141:A *16:10 0
5 *141:A *16:25 0
*RES
1 A[0] *141:A 18.73 
*END

*D_NET *2 0.000930923
*CONN
*P A[1] I
*I *142:A I *D sky130_fd_sc_hd__buf_1
*CAP
1 A[1] 0.000465461
2 *142:A 0.000465461
3 *142:A *144:A 0
*RES
1 A[1] *142:A 23.05 
*END

*D_NET *3 0.000672993
*CONN
*P B[0] I
*I *143:A I *D sky130_fd_sc_hd__buf_1
*CAP
1 B[0] 0.000322112
2 *143:A 0.000322112
3 *141:A *143:A 2.87684e-05
*RES
1 B[0] *143:A 21.391 
*END

*D_NET *4 0.00101323
*CONN
*P B[1] I
*I *144:A I *D sky130_fd_sc_hd__buf_1
*CAP
1 B[1] 0.000506617
2 *144:A 0.000506617
3 *144:A P[2] 0
4 *142:A *144:A 0
*RES
1 B[1] *144:A 23.8714 
*END

*D_NET *5 0.000413372
*CONN
*P P[0] O
*I *122:LO O *D sky130_fd_sc_hd__conb_1
*CAP
1 P[0] 0.000206686
2 *122:LO 0.000206686
3 P[0] P[1] 0
*RES
1 *122:LO P[0] 18.1229 
*END

*D_NET *6 0.000560998
*CONN
*P P[1] O
*I *145:X O *D sky130_fd_sc_hd__buf_2
*CAP
1 P[1] 0.000280499
2 *145:X 0.000280499
3 P[0] P[1] 0
*RES
1 *145:X P[1] 18.8021 
*END

*D_NET *7 0.00095307
*CONN
*P P[2] O
*I *146:X O *D sky130_fd_sc_hd__buf_2
*CAP
1 P[2] 0.000476535
2 *146:X 0.000476535
3 P[2] P[3] 0
4 *144:A P[2] 0
*RES
1 *146:X P[2] 23.2643 
*END

*D_NET *8 0.000951893
*CONN
*P P[3] O
*I *147:X O *D sky130_fd_sc_hd__buf_2
*CAP
1 P[3] 0.000475946
2 *147:X 0.000475946
3 P[2] P[3] 0
*RES
1 *147:X P[3] 23.2643 
*END

*D_NET *11 0.000300287
*CONN
*I *140:A2 I *D sky130_fd_sc_hd__a21oi_1
*I *139:Y O *D sky130_fd_sc_hd__nand2_1
*CAP
1 *140:A2 6.25513e-05
2 *139:Y 6.25513e-05
3 *140:A2 *140:A1 0.000141279
4 *140:A2 *15:16 3.39053e-05
*RES
1 *139:Y *140:A2 20.3857 
*END

*D_NET *12 0.00233921
*CONN
*I *140:A1 I *D sky130_fd_sc_hd__a21oi_1
*I *137:B1 I *D sky130_fd_sc_hd__o211a_1
*I *135:Y O *D sky130_fd_sc_hd__nand3_1
*CAP
1 *140:A1 0.00051063
2 *137:B1 0.000144235
3 *135:Y 0.000212645
4 *12:8 0.000867511
5 *137:B1 *137:A2 0
6 *140:A1 *137:A2 0
7 *140:A1 *15:16 9.35794e-06
8 *140:A1 *15:24 0
9 *12:8 *15:24 4.58976e-05
10 *12:8 *15:28 0.00040765
11 *140:A2 *140:A1 0.000141279
*RES
1 *135:Y *12:8 18.4429 
2 *12:8 *137:B1 16.05 
3 *12:8 *140:A1 20.2821 
*END

*D_NET *13 0.00119604
*CONN
*I *137:C1 I *D sky130_fd_sc_hd__o211a_1
*I *136:X O *D sky130_fd_sc_hd__a21o_1
*CAP
1 *137:C1 0.000286927
2 *136:X 0.000286927
3 *137:C1 *137:A1 0.000582901
4 *137:C1 *14:12 3.92854e-05
5 *137:C1 *16:25 0
*RES
1 *136:X *137:C1 35.0107 
*END

*D_NET *14 0.00220343
*CONN
*I *138:A I *D sky130_fd_sc_hd__and4_1
*I *135:A I *D sky130_fd_sc_hd__nand3_1
*I *136:B1 I *D sky130_fd_sc_hd__a21o_1
*I *141:X O *D sky130_fd_sc_hd__buf_1
*CAP
1 *138:A 2.96909e-05
2 *135:A 0
3 *136:B1 0
4 *141:X 0.000404145
5 *14:29 9.63766e-05
6 *14:12 0.000470831
7 *138:A *138:B 0.000276211
8 *138:A *15:28 0.000262877
9 *14:12 *137:A1 2.72967e-05
10 *14:12 *16:25 7.83366e-05
11 *14:29 *135:C 1.81419e-05
12 *14:29 *136:A2 7.77751e-05
13 *14:29 *138:B 5.71472e-05
14 *14:29 *15:28 0.00013072
15 *14:29 *16:36 0.000234596
16 *137:C1 *14:12 3.92854e-05
*RES
1 *141:X *14:12 24.0679 
2 *14:12 *136:B1 9.3 
3 *14:12 *14:29 3.91071 
4 *14:29 *135:A 9.3 
5 *14:29 *138:A 11.8893 
*END

*D_NET *15 0.0033101
*CONN
*I *139:A I *D sky130_fd_sc_hd__nand2_1
*I *138:C I *D sky130_fd_sc_hd__and4_1
*I *135:C I *D sky130_fd_sc_hd__nand3_1
*I *136:A2 I *D sky130_fd_sc_hd__a21o_1
*I *142:X O *D sky130_fd_sc_hd__buf_1
*CAP
1 *139:A 0
2 *138:C 0
3 *135:C 9.42629e-06
4 *136:A2 0.000156361
5 *142:X 0.000378187
6 *15:28 0.000284442
7 *15:24 0.000367514
8 *15:16 0.000627047
9 *136:A2 *16:36 3.99958e-05
10 *15:16 *146:A 0
11 *15:16 *17:8 0.000103267
12 *15:24 *137:A2 2.41972e-05
13 *15:24 *138:D 4.40586e-05
14 *15:24 *17:10 5.52981e-05
15 *15:24 *20:10 0.000185118
16 *15:28 *138:B 4.88637e-05
17 *138:A *15:28 0.000262877
18 *140:A1 *15:16 9.35794e-06
19 *140:A1 *15:24 0
20 *140:A2 *15:16 3.39053e-05
21 *12:8 *15:24 4.58976e-05
22 *12:8 *15:28 0.00040765
23 *14:29 *135:C 1.81419e-05
24 *14:29 *136:A2 7.77751e-05
25 *14:29 *15:28 0.00013072
*RES
1 *142:X *15:16 24.6214 
2 *15:16 *15:24 14.25 
3 *15:24 *15:28 5.48214 
4 *15:28 *136:A2 12.3179 
5 *15:28 *135:C 9.72857 
6 *15:24 *138:C 9.3 
7 *15:16 *139:A 9.3 
*END

*D_NET *16 0.00415778
*CONN
*I *138:B I *D sky130_fd_sc_hd__and4_1
*I *135:B I *D sky130_fd_sc_hd__nand3_1
*I *136:A1 I *D sky130_fd_sc_hd__a21o_1
*I *137:A1 I *D sky130_fd_sc_hd__o211a_1
*I *143:X O *D sky130_fd_sc_hd__buf_1
*CAP
1 *138:B 0.000167187
2 *135:B 0
3 *136:A1 0
4 *137:A1 0.000457892
5 *143:X 0.000345294
6 *16:36 0.000413579
7 *16:25 0.000415301
8 *16:10 0.000972095
9 *137:A1 *137:A2 4.10796e-05
10 *136:A2 *16:36 3.99958e-05
11 *137:C1 *137:A1 0.000582901
12 *137:C1 *16:25 0
13 *138:A *138:B 0.000276211
14 *141:A *16:10 0
15 *141:A *16:25 0
16 *14:12 *137:A1 2.72967e-05
17 *14:12 *16:25 7.83366e-05
18 *14:29 *138:B 5.71472e-05
19 *14:29 *16:36 0.000234596
20 *15:28 *138:B 4.88637e-05
*RES
1 *143:X *16:10 18.1393 
2 *16:10 *137:A1 22.9786 
3 *16:10 *16:25 7.66071 
4 *16:25 *136:A1 9.3 
5 *16:25 *16:36 4.16071 
6 *16:36 *135:B 9.3 
7 *16:36 *138:B 13.1214 
*END

*D_NET *17 0.00211478
*CONN
*I *139:B I *D sky130_fd_sc_hd__nand2_1
*I *138:D I *D sky130_fd_sc_hd__and4_1
*I *137:A2 I *D sky130_fd_sc_hd__o211a_1
*I *144:X O *D sky130_fd_sc_hd__buf_1
*CAP
1 *139:B 0
2 *138:D 0.000246738
3 *137:A2 0.000335141
4 *144:X 9.40561e-05
5 *17:10 0.000675839
6 *17:8 0.000188016
7 *137:A2 *145:A 3.77053e-05
8 *138:D *20:10 0.000269379
9 *137:A1 *137:A2 4.10796e-05
10 *137:B1 *137:A2 0
11 *140:A1 *137:A2 0
12 *15:16 *17:8 0.000103267
13 *15:24 *137:A2 2.41972e-05
14 *15:24 *138:D 4.40586e-05
15 *15:24 *17:10 5.52981e-05
*RES
1 *144:X *17:8 15.7464 
2 *17:8 *17:10 1.64286 
3 *17:10 *137:A2 19.9786 
4 *17:10 *138:D 17.2107 
5 *17:8 *139:B 13.8 
*END

*D_NET *18 0.00314318
*CONN
*I *145:A I *D sky130_fd_sc_hd__buf_2
*I *137:X O *D sky130_fd_sc_hd__o211a_1
*CAP
1 *145:A 0.00155274
2 *137:X 0.00155274
3 *137:A2 *145:A 3.77053e-05
*RES
1 *137:X *145:A 46.2071 
*END

*D_NET *19 0.000404862
*CONN
*I *146:A I *D sky130_fd_sc_hd__buf_2
*I *140:Y O *D sky130_fd_sc_hd__a21oi_1
*CAP
1 *146:A 0.000184068
2 *140:Y 0.000184068
3 *146:A *140:B1 3.67252e-05
4 *15:16 *146:A 0
*RES
1 *140:Y *146:A 30.4929 
*END

*D_NET *20 0.00239294
*CONN
*I *147:A I *D sky130_fd_sc_hd__buf_2
*I *140:B1 I *D sky130_fd_sc_hd__a21oi_1
*I *138:X O *D sky130_fd_sc_hd__and4_1
*CAP
1 *147:A 0.000160825
2 *140:B1 0.000224348
3 *138:X 0.000565687
4 *20:10 0.00095086
5 *138:D *20:10 0.000269379
6 *146:A *140:B1 3.67252e-05
7 *15:24 *20:10 0.000185118
*RES
1 *138:X *20:10 24.0857 
2 *20:10 *140:B1 17.6214 
3 *20:10 *147:A 16.6571 
*END
