*SPEF "ieee 1481-1999"
*DESIGN "mult4_SarsaNada_e6_SarsaNStepsRuido_e9_SarsaNStepsRuido_e9_SARSA_RUIDO_e9"
*DATE "12:07:05 Wednesday September 17, 2025"
*VENDOR "The OpenROAD Project"
*PROGRAM "OpenROAD"
*VERSION "edf00dff99f6c40d67a30c0e22a8191c5d2ed9d6"
*DESIGN_FLOW "NAME_SCOPE LOCAL" "PIN_CAP NONE"
*DIVIDER /
*DELIMITER :
*BUS_DELIMITER []
*T_UNIT 1 NS
*C_UNIT 1 PF
*R_UNIT 1 OHM
*L_UNIT 1 HENRY

*NAME_MAP
*1 A[0]
*2 A[1]
*3 A[2]
*4 A[3]
*5 B[0]
*6 B[1]
*7 B[2]
*8 B[3]
*9 P[0]
*10 P[1]
*11 P[2]
*12 P[3]
*13 P[4]
*14 P[5]
*15 P[6]
*16 P[7]
*19 _000_
*20 _001_
*21 _002_
*22 _003_
*23 _004_
*24 _005_
*25 _006_
*26 _007_
*27 _008_
*28 _009_
*29 _010_
*30 _011_
*31 _012_
*32 _013_
*33 _014_
*34 _015_
*35 _016_
*36 _017_
*37 _018_
*38 _019_
*39 _020_
*40 _021_
*41 _022_
*42 _023_
*43 _024_
*44 _025_
*45 _026_
*46 _027_
*47 _028_
*48 _029_
*49 _030_
*50 _031_
*51 _032_
*52 _033_
*53 _034_
*54 _035_
*55 _036_
*56 _037_
*57 _038_
*58 _039_
*59 _040_
*60 _041_
*61 _042_
*62 _043_
*63 _044_
*64 _045_
*65 _046_
*66 net1
*67 net10
*68 net11
*69 net12
*70 net13
*71 net14
*72 net15
*73 net16
*74 net2
*75 net3
*76 net4
*77 net5
*78 net6
*79 net7
*80 net8
*81 net9
*82 FILLER_0_15
*83 FILLER_0_27
*84 FILLER_0_3
*85 FILLER_0_33
*86 FILLER_0_55
*87 FILLER_0_76
*88 FILLER_0_80
*89 FILLER_1_11
*90 FILLER_1_22
*91 FILLER_1_29
*92 FILLER_1_3
*93 FILLER_1_34
*94 FILLER_1_42
*95 FILLER_1_51
*96 FILLER_1_55
*97 FILLER_1_57
*98 FILLER_1_61
*99 FILLER_1_75
*100 FILLER_2_11
*101 FILLER_2_23
*102 FILLER_2_3
*103 FILLER_2_38
*104 FILLER_2_49
*105 FILLER_2_61
*106 FILLER_2_7
*107 FILLER_2_79
*108 FILLER_3_28
*109 FILLER_3_3
*110 FILLER_3_36
*111 FILLER_3_79
*112 FILLER_4_19
*113 FILLER_4_27
*114 FILLER_4_29
*115 FILLER_4_41
*116 FILLER_4_53
*117 FILLER_4_65
*118 FILLER_4_7
*119 FILLER_5_19
*120 FILLER_5_34
*121 FILLER_5_40
*122 FILLER_5_51
*123 FILLER_5_55
*124 FILLER_5_57
*125 FILLER_5_69
*126 FILLER_5_7
*127 FILLER_5_79
*128 FILLER_6_18
*129 FILLER_6_34
*130 FILLER_6_40
*131 FILLER_6_48
*132 FILLER_6_52
*133 FILLER_6_60
*134 FILLER_6_68
*135 FILLER_6_79
*136 FILLER_7_15
*137 FILLER_7_19
*138 FILLER_7_31
*139 FILLER_7_55
*140 FILLER_7_57
*141 FILLER_7_7
*142 FILLER_7_74
*143 FILLER_7_80
*144 FILLER_8_16
*145 FILLER_8_29
*146 FILLER_8_3
*147 FILLER_8_41
*148 FILLER_8_53
*149 FILLER_8_65
*150 FILLER_8_77
*151 FILLER_9_19
*152 FILLER_9_27
*153 FILLER_9_36
*154 FILLER_9_42
*155 FILLER_9_54
*156 FILLER_9_57
*157 FILLER_9_69
*158 FILLER_9_7
*159 PHY_EDGE_ROW_0_Left_10
*160 PHY_EDGE_ROW_0_Right_0
*161 PHY_EDGE_ROW_1_Left_11
*162 PHY_EDGE_ROW_1_Right_1
*163 PHY_EDGE_ROW_2_Left_12
*164 PHY_EDGE_ROW_2_Right_2
*165 PHY_EDGE_ROW_3_Left_13
*166 PHY_EDGE_ROW_3_Right_3
*167 PHY_EDGE_ROW_4_Left_14
*168 PHY_EDGE_ROW_4_Right_4
*169 PHY_EDGE_ROW_5_Left_15
*170 PHY_EDGE_ROW_5_Right_5
*171 PHY_EDGE_ROW_6_Left_16
*172 PHY_EDGE_ROW_6_Right_6
*173 PHY_EDGE_ROW_7_Left_17
*174 PHY_EDGE_ROW_7_Right_7
*175 PHY_EDGE_ROW_8_Left_18
*176 PHY_EDGE_ROW_8_Right_8
*177 PHY_EDGE_ROW_9_Left_19
*178 PHY_EDGE_ROW_9_Right_9
*179 TAP_TAPCELL_ROW_0_20
*180 TAP_TAPCELL_ROW_0_21
*181 TAP_TAPCELL_ROW_1_22
*182 TAP_TAPCELL_ROW_2_23
*183 TAP_TAPCELL_ROW_3_24
*184 TAP_TAPCELL_ROW_4_25
*185 TAP_TAPCELL_ROW_5_26
*186 TAP_TAPCELL_ROW_6_27
*187 TAP_TAPCELL_ROW_7_28
*188 TAP_TAPCELL_ROW_8_29
*189 TAP_TAPCELL_ROW_9_30
*190 TAP_TAPCELL_ROW_9_31
*191 _047_
*192 _048_
*193 _049_
*194 _050_
*195 _051_
*196 _052_
*197 _053_
*198 _054_
*199 _055_
*200 _056_
*201 _057_
*202 _058_
*203 _059_
*204 _060_
*205 _061_
*206 _062_
*207 _063_
*208 _064_
*209 _065_
*210 _066_
*211 _067_
*212 _068_
*213 _069_
*214 _070_
*215 _071_
*216 _072_
*217 _073_
*218 _074_
*219 _075_
*220 _076_
*221 _077_
*222 _078_
*223 _079_
*224 _080_
*225 _081_
*226 _082_
*227 _083_
*228 _084_
*229 _085_
*230 _086_
*231 _087_
*232 _088_
*233 _089_
*234 _090_
*235 _091_
*236 _092_
*237 _093_
*238 _094_
*239 _095_
*240 _096_
*241 _097_
*242 _098_
*243 _099_
*244 _100_
*245 _101_
*246 input1
*247 input2
*248 input3
*249 input4
*250 input5
*251 input6
*252 input7
*253 input8
*254 output10
*255 output11
*256 output12
*257 output13
*258 output14
*259 output15
*260 output16
*261 output9

*PORTS
A[0] I
A[1] I
A[2] I
A[3] I
B[0] I
B[1] I
B[2] I
B[3] I
P[0] O
P[1] O
P[2] O
P[3] O
P[4] O
P[5] O
P[6] O
P[7] O

*D_NET *1 0.00136733
*CONN
*P A[0] I
*I *246:A I *D sky130_fd_sc_hd__buf_1
*CAP
1 A[0] 0.000568945
2 *246:A 0.000568945
3 *246:A P[2] 0
4 *246:A *252:A 0
5 *246:A *32:10 5.33005e-05
6 *246:A *66:14 7.90803e-05
7 *246:A *78:35 5.33005e-05
8 *246:A *79:14 4.37641e-05
*RES
1 A[0] *246:A 24.5679 
*END

*D_NET *2 0.000781519
*CONN
*P A[1] I
*I *247:A I *D sky130_fd_sc_hd__buf_1
*CAP
1 A[1] 0.000390759
2 *247:A 0.000390759
3 *247:A P[2] 0
4 *247:A *192:B 0
*RES
1 A[1] *247:A 21.3 
*END

*D_NET *3 0.000695141
*CONN
*P A[2] I
*I *248:A I *D sky130_fd_sc_hd__clkbuf_2
*CAP
1 A[2] 0.000320304
2 *248:A 0.000320304
3 *248:A *249:A 3.19385e-05
4 *248:A *253:A 2.25951e-05
*RES
1 A[2] *248:A 21.1946 
*END

*D_NET *4 0.000923542
*CONN
*P A[3] I
*I *249:A I *D sky130_fd_sc_hd__buf_1
*CAP
1 A[3] 0.000429833
2 *249:A 0.000429833
3 *249:A *226:A2 0
4 *249:A *226:B1 0
5 *249:A *251:A 3.19385e-05
6 *249:A *80:20 0
7 *248:A *249:A 3.19385e-05
*RES
1 A[3] *249:A 21.7657 
*END

*D_NET *5 0.00133936
*CONN
*P B[0] I
*I *250:A I *D sky130_fd_sc_hd__dlymetal6s2s_1
*CAP
1 B[0] 0.000487945
2 *250:A 0.000487945
3 *250:A P[0] 0
4 *250:A *196:A2 9.25014e-06
5 *250:A *197:A2 3.34295e-05
6 *250:A *197:B1 2.49484e-05
7 *250:A *198:B 0.000144773
8 *250:A *77:8 0.000151071
*RES
1 B[0] *250:A 24.1929 
*END

*D_NET *6 0.000728261
*CONN
*P B[1] I
*I *251:A I *D sky130_fd_sc_hd__clkbuf_2
*CAP
1 B[1] 0.000348161
2 *251:A 0.000348161
3 *249:A *251:A 3.19385e-05
*RES
1 B[1] *251:A 21.8017 
*END

*D_NET *7 0.000822168
*CONN
*P B[2] I
*I *252:A I *D sky130_fd_sc_hd__clkbuf_2
*CAP
1 B[2] 0.000404676
2 *252:A 0.000404676
3 *252:A P[0] 0
4 *252:A *192:A 1.28171e-05
5 *246:A *252:A 0
*RES
1 B[2] *252:A 21.5321 
*END

*D_NET *8 0.000631227
*CONN
*P B[3] I
*I *253:A I *D sky130_fd_sc_hd__clkbuf_2
*CAP
1 B[3] 0.000289932
2 *253:A 0.000289932
3 *253:A P[7] 2.87684e-05
4 *248:A *253:A 2.25951e-05
*RES
1 B[3] *253:A 20.891 
*END

*D_NET *9 0.00126049
*CONN
*P P[0] O
*I *261:X O *D sky130_fd_sc_hd__buf_2
*CAP
1 P[0] 0.000599447
2 *261:X 0.000599447
3 P[0] *192:A 6.15317e-06
4 P[0] *196:B1 1.23943e-05
5 P[0] *261:A 2.976e-05
6 P[0] *77:27 1.32934e-05
7 *250:A P[0] 0
8 *252:A P[0] 0
*RES
1 *261:X P[0] 23.9429 
*END

*D_NET *10 0.00139024
*CONN
*P P[1] O
*I *254:X O *D sky130_fd_sc_hd__buf_2
*CAP
1 P[1] 0.000652285
2 *254:X 0.000652285
3 P[1] *198:B 5.38072e-05
4 P[1] *254:A 3.18676e-05
*RES
1 *254:X P[1] 24.5143 
*END

*D_NET *11 0.00141644
*CONN
*P P[2] O
*I *255:X O *D sky130_fd_sc_hd__buf_2
*CAP
1 P[2] 0.000545181
2 *255:X 0.000545181
3 P[2] *192:A 9.22103e-06
4 P[2] *199:C 6.28499e-05
5 P[2] *255:A 0.000144773
6 P[2] *66:30 2.44318e-05
7 P[2] *74:21 5.52302e-05
8 P[2] *79:14 2.95726e-05
9 *246:A P[2] 0
10 *247:A P[2] 0
*RES
1 *255:X P[2] 24.8357 
*END

*D_NET *12 0.000678903
*CONN
*P P[3] O
*I *256:X O *D sky130_fd_sc_hd__buf_2
*CAP
1 P[3] 0.000280987
2 *256:X 0.000280987
3 P[3] P[4] 0
4 P[3] *256:A 0.000116928
*RES
1 *256:X P[3] 19.4092 
*END

*D_NET *13 0.00111759
*CONN
*P P[4] O
*I *257:X O *D sky130_fd_sc_hd__buf_2
*CAP
1 P[4] 0.000532618
2 *257:X 0.000532618
3 P[4] P[5] 0
4 P[4] *257:A 3.18676e-05
5 P[4] *47:10 2.04825e-05
6 P[3] P[4] 0
*RES
1 *257:X P[4] 21.267 
*END

*D_NET *14 0.000643545
*CONN
*P P[5] O
*I *258:X O *D sky130_fd_sc_hd__buf_2
*CAP
1 P[5] 0.0002904
2 *258:X 0.0002904
3 P[5] *258:A 6.27457e-05
4 P[4] P[5] 0
*RES
1 *258:X P[5] 19.4092 
*END

*D_NET *15 0.000954247
*CONN
*P P[6] O
*I *259:X O *D sky130_fd_sc_hd__buf_2
*CAP
1 P[6] 0.000477123
2 *259:X 0.000477123
*RES
1 *259:X P[6] 23.2643 
*END

*D_NET *16 0.000632965
*CONN
*P P[7] O
*I *260:X O *D sky130_fd_sc_hd__buf_2
*CAP
1 P[7] 0.000302098
2 *260:X 0.000302098
3 P[7] *260:A 0
4 *253:A P[7] 2.87684e-05
*RES
1 *260:X P[7] 19.4092 
*END

*D_NET *19 0.000859795
*CONN
*I *226:A2 I *D sky130_fd_sc_hd__a211o_1
*I *191:Y O *D sky130_fd_sc_hd__inv_2
*CAP
1 *226:A2 0.000208704
2 *191:Y 0.000208704
3 *226:A2 *224:A2 6.74815e-05
4 *226:A2 *226:B1 8.71234e-05
5 *226:A2 *75:6 4.72917e-05
6 *226:A2 *80:14 2.41865e-05
7 *226:A2 *80:16 0.000137939
8 *226:A2 *80:20 7.83659e-05
9 *249:A *226:A2 0
*RES
1 *191:Y *226:A2 32.1179 
*END

*D_NET *20 0.000337336
*CONN
*I *199:C I *D sky130_fd_sc_hd__and3_1
*I *192:Y O *D sky130_fd_sc_hd__nand2_1
*CAP
1 *199:C 0.000100962
2 *192:Y 0.000100962
3 *199:C *74:8 5.71472e-05
4 *199:C *74:21 1.54142e-05
5 P[2] *199:C 6.28499e-05
*RES
1 *192:Y *199:C 20.0286 
*END

*D_NET *21 0.00314588
*CONN
*I *194:A I *D sky130_fd_sc_hd__inv_2
*I *209:A I *D sky130_fd_sc_hd__xnor2_1
*I *196:B1 I *D sky130_fd_sc_hd__a21o_1
*I *193:X O *D sky130_fd_sc_hd__and4_1
*CAP
1 *194:A 0.000146585
2 *209:A 0
3 *196:B1 0.000172417
4 *193:X 4.54597e-05
5 *21:29 0.000400136
6 *21:8 0.000471428
7 *194:A *198:A 4.88637e-05
8 *194:A *208:A 1.04232e-05
9 *194:A *208:B 0.000199009
10 *194:A *22:6 3.18676e-05
11 *194:A *32:10 1.69961e-05
12 *194:A *33:10 5.71472e-05
13 *194:A *34:10 0.00010096
14 *196:B1 *193:D 1.0562e-05
15 *196:B1 *196:A2 6.35242e-05
16 *196:B1 *197:B1 0.00015287
17 *196:B1 *197:B2 9.2532e-05
18 *196:B1 *77:27 0.000170917
19 *21:8 *193:D 5.69387e-05
20 *21:8 *197:B1 5.43539e-05
21 *21:29 *195:B1_N 0.000137983
22 *21:29 *197:B1 2.78745e-05
23 *21:29 *32:10 0.000664641
24 P[0] *196:B1 1.23943e-05
*RES
1 *193:X *21:8 15.2911 
2 *21:8 *196:B1 18.7018 
3 *21:8 *21:29 11.5982 
4 *21:29 *209:A 9.3 
5 *21:29 *194:A 13.5679 
*END

*D_NET *22 0.00073552
*CONN
*I *208:A I *D sky130_fd_sc_hd__nor2_1
*I *198:A I *D sky130_fd_sc_hd__and2_1
*I *194:Y O *D sky130_fd_sc_hd__inv_2
*CAP
1 *208:A 1.99857e-05
2 *198:A 0.000232673
3 *194:Y 4.19087e-05
4 *22:6 0.000294567
5 *198:A *208:B 5.52302e-05
6 *208:A *208:B 0
7 *194:A *198:A 4.88637e-05
8 *194:A *208:A 1.04232e-05
9 *194:A *22:6 3.18676e-05
*RES
1 *194:Y *22:6 10.2464 
2 *22:6 *198:A 22.2107 
3 *22:6 *208:A 9.72857 
*END

*D_NET *23 0.000581548
*CONN
*I *196:A2 I *D sky130_fd_sc_hd__a21o_1
*I *195:X O *D sky130_fd_sc_hd__o21ba_1
*CAP
1 *196:A2 0.000113388
2 *195:X 0.000113388
3 *196:A2 *197:A2 6.30388e-05
4 *196:A2 *197:B1 0.000157072
5 *196:A2 *197:B2 4.97578e-05
6 *196:A2 *77:12 1.21289e-05
7 *196:B1 *196:A2 6.35242e-05
8 *250:A *196:A2 9.25014e-06
*RES
1 *195:X *196:A2 31.0286 
*END

*D_NET *24 0.00101242
*CONN
*I *198:B I *D sky130_fd_sc_hd__and2_1
*I *197:X O *D sky130_fd_sc_hd__a22o_1
*CAP
1 *198:B 0.000380768
2 *197:X 0.000380768
3 *198:B *77:8 5.23057e-05
4 P[1] *198:B 5.38072e-05
5 *250:A *198:B 0.000144773
*RES
1 *197:X *198:B 25.6179 
*END

*D_NET *25 0.00337586
*CONN
*I *201:A I *D sky130_fd_sc_hd__inv_2
*I *219:S I *D sky130_fd_sc_hd__mux2_1
*I *227:B I *D sky130_fd_sc_hd__nand3_1
*I *217:B I *D sky130_fd_sc_hd__nand2_1
*I *200:X O *D sky130_fd_sc_hd__and3_1
*CAP
1 *201:A 0.000101635
2 *219:S 0
3 *227:B 0.000117449
4 *217:B 0
5 *200:X 0
6 *25:40 0.000758326
7 *25:8 0.000250922
8 *25:4 0.000790163
9 *201:A *202:A 0.000129595
10 *201:A *211:A2 0
11 *201:A *27:6 5.71472e-05
12 *201:A *28:16 0.000163587
13 *227:B *200:C 0
14 *227:B *217:A 5.52302e-05
15 *227:B *228:B 3.30237e-05
16 *25:8 *218:B 0
17 *25:40 *200:A 4.64895e-05
18 *25:40 *200:B 0.000227013
19 *25:40 *200:C 1.20125e-05
20 *25:40 *202:A 2.89114e-05
21 *25:40 *203:B1 2.12912e-05
22 *25:40 *218:B 0.00013567
23 *25:40 *28:16 0.000439429
24 *25:40 *75:44 7.96867e-06
*RES
1 *200:X *25:4 9.3 
2 *25:4 *25:8 2.5 
3 *25:8 *217:B 9.3 
4 *25:8 *227:B 11.4964 
5 *25:4 *25:40 20.2321 
6 *25:40 *219:S 9.3 
7 *25:40 *201:A 13.1393 
*END

*D_NET *26 0.000675293
*CONN
*I *210:A I *D sky130_fd_sc_hd__and4_1
*I *211:A1 I *D sky130_fd_sc_hd__a31o_1
*I *201:Y O *D sky130_fd_sc_hd__inv_2
*CAP
1 *210:A 4.77162e-05
2 *211:A1 0
3 *201:Y 6.90361e-05
4 *26:6 0.000116752
5 *210:A *210:B 2.28499e-05
6 *210:A *210:C 0.000139913
7 *210:A *210:D 0.000125057
8 *210:A *27:6 2.44318e-05
9 *26:6 *210:D 2.89114e-05
10 *26:6 *27:6 0.000100625
*RES
1 *201:Y *26:6 11.0679 
2 *26:6 *211:A1 9.3 
3 *26:6 *210:A 11.4786 
*END

*D_NET *27 0.00128639
*CONN
*I *210:B I *D sky130_fd_sc_hd__and4_1
*I *211:A2 I *D sky130_fd_sc_hd__a31o_1
*I *202:X O *D sky130_fd_sc_hd__or2_1
*CAP
1 *210:B 9.23803e-05
2 *211:A2 2.23854e-05
3 *202:X 5.65409e-05
4 *27:6 0.000171307
5 *210:B *210:C 0.000236898
6 *210:B *212:B 0.000142856
7 *210:B *28:16 4.18895e-05
8 *211:A2 *210:C 0
9 *27:6 *28:16 0.000317082
10 *201:A *211:A2 0
11 *201:A *27:6 5.71472e-05
12 *210:A *210:B 2.28499e-05
13 *210:A *27:6 2.44318e-05
14 *26:6 *27:6 0.000100625
*RES
1 *202:X *27:6 12.3 
2 *27:6 *211:A2 9.72857 
3 *27:6 *210:B 12.6214 
*END

*D_NET *28 0.00323435
*CONN
*I *210:C I *D sky130_fd_sc_hd__and4_1
*I *211:A3 I *D sky130_fd_sc_hd__a31o_1
*I *203:X O *D sky130_fd_sc_hd__a21o_1
*CAP
1 *210:C 8.04908e-05
2 *211:A3 0
3 *203:X 0.000597107
4 *28:16 0.000677598
5 *210:C *210:D 0.000113089
6 *210:C *212:B 1.32552e-05
7 *28:16 *202:A 3.53531e-05
8 *28:16 *210:D 4.1331e-06
9 *28:16 *218:B 5.65955e-05
10 *28:16 *219:A0 0.000272994
11 *28:16 *33:10 2.61337e-05
12 *28:16 *34:10 1.88048e-05
13 *201:A *28:16 0.000163587
14 *210:A *210:C 0.000139913
15 *210:B *210:C 0.000236898
16 *210:B *28:16 4.18895e-05
17 *211:A2 *210:C 0
18 *25:40 *28:16 0.000439429
19 *27:6 *28:16 0.000317082
*RES
1 *203:X *28:16 30.3893 
2 *28:16 *211:A3 9.3 
3 *28:16 *210:C 12.7464 
*END

*D_NET *29 0.00246208
*CONN
*I *216:S I *D sky130_fd_sc_hd__mux2_1
*I *214:B I *D sky130_fd_sc_hd__and2_1
*I *207:A I *D sky130_fd_sc_hd__or3_1
*I *204:X O *D sky130_fd_sc_hd__and3_1
*CAP
1 *216:S 0.000191969
2 *214:B 0.000159939
3 *207:A 0.000111096
4 *204:X 0
5 *29:6 0.000581274
6 *29:4 0.000502209
7 *207:A *206:B1 9.30251e-06
8 *207:A *207:C 5.7254e-05
9 *214:B *206:A2 0.00012401
10 *214:B *207:B 0
11 *214:B *214:A 9.97744e-05
12 *214:B *78:16 0
13 *214:B *79:44 0.000222885
14 *216:S *66:14 9.25014e-06
15 *216:S *77:61 0
16 *216:S *78:35 7.41433e-05
17 *216:S *79:31 0
18 *29:6 *204:C 1.95435e-05
19 *29:6 *206:A1 0.000183713
20 *29:6 *206:A2 2.14757e-05
21 *29:6 *206:B1 1.21289e-05
22 *29:6 *78:35 8.21076e-05
*RES
1 *204:X *29:4 9.3 
2 *29:4 *29:6 4.23214 
3 *29:6 *207:A 11.6393 
4 *29:6 *214:B 22.675 
5 *29:4 *216:S 21.1929 
*END

*D_NET *30 0.000805388
*CONN
*I *207:B I *D sky130_fd_sc_hd__or3_1
*I *205:Y O *D sky130_fd_sc_hd__nor2_1
*CAP
1 *207:B 0.000309363
2 *205:Y 0.000309363
3 *207:B *199:B 0
4 *207:B *205:B 0.00010096
5 *207:B *206:A2 0
6 *207:B *206:B1 0
7 *207:B *80:33 8.57023e-05
8 *214:B *207:B 0
*RES
1 *205:Y *207:B 31.9214 
*END

*D_NET *31 0.000408869
*CONN
*I *207:C I *D sky130_fd_sc_hd__or3_1
*I *206:Y O *D sky130_fd_sc_hd__a21oi_1
*CAP
1 *207:C 0.000140567
2 *206:Y 0.000140567
3 *207:C *206:B1 1.33343e-05
4 *207:C *32:10 5.71472e-05
5 *207:A *207:C 5.7254e-05
*RES
1 *206:Y *207:C 21.5107 
*END

*D_NET *32 0.00401796
*CONN
*I *208:B I *D sky130_fd_sc_hd__nor2_1
*I *209:B I *D sky130_fd_sc_hd__xnor2_1
*I *207:X O *D sky130_fd_sc_hd__or3_1
*CAP
1 *208:B 6.87003e-05
2 *209:B 0
3 *207:X 0.000968924
4 *32:10 0.00103762
5 *32:10 *195:A1 9.11536e-05
6 *32:10 *195:B1_N 2.14757e-05
7 *32:10 *206:A1 2.07382e-05
8 *32:10 *206:A2 1.56e-05
9 *32:10 *206:B1 4.58976e-05
10 *32:10 *66:14 0.000117543
11 *32:10 *66:30 2.89114e-05
12 *32:10 *66:63 2.70242e-05
13 *32:10 *66:72 5.49489e-05
14 *32:10 *78:35 0.000473096
15 *194:A *208:B 0.000199009
16 *194:A *32:10 1.69961e-05
17 *198:A *208:B 5.52302e-05
18 *207:C *32:10 5.71472e-05
19 *208:A *208:B 0
20 *246:A *32:10 5.33005e-05
21 *21:29 *32:10 0.000664641
*RES
1 *207:X *32:10 29.9964 
2 *32:10 *209:B 9.3 
3 *32:10 *208:B 11.4964 
*END

*D_NET *33 0.00204087
*CONN
*I *223:A1 I *D sky130_fd_sc_hd__o21ai_1
*I *244:A I *D sky130_fd_sc_hd__or3_1
*I *208:Y O *D sky130_fd_sc_hd__nor2_1
*CAP
1 *223:A1 0.000303885
2 *244:A 5.02889e-05
3 *208:Y 0.000528252
4 *33:10 0.000882426
5 *223:A1 *223:B1 7.99227e-06
6 *223:A1 *244:B 0.000184745
7 *244:A *35:23 0
8 *33:10 *210:D 0
9 *33:10 *212:A_N 0
10 *33:10 *212:B 0
11 *33:10 *34:10 0
12 *33:10 *35:23 0
13 *194:A *33:10 5.71472e-05
14 *28:16 *33:10 2.61337e-05
*RES
1 *208:Y *33:10 22.5054 
2 *33:10 *244:A 14.6839 
3 *33:10 *223:A1 18.2375 
*END

*D_NET *34 0.00172638
*CONN
*I *210:D I *D sky130_fd_sc_hd__and4_1
*I *211:B1 I *D sky130_fd_sc_hd__a31o_1
*I *209:Y O *D sky130_fd_sc_hd__xnor2_1
*CAP
1 *210:D 0.000368627
2 *211:B1 0
3 *209:Y 0.000297179
4 *34:10 0.000665806
5 *210:D *202:B 0
6 *210:D *212:B 3.80953e-06
7 *194:A *34:10 0.00010096
8 *210:A *210:D 0.000125057
9 *210:C *210:D 0.000113089
10 *26:6 *210:D 2.89114e-05
11 *28:16 *210:D 4.1331e-06
12 *28:16 *34:10 1.88048e-05
13 *33:10 *210:D 0
14 *33:10 *34:10 0
*RES
1 *209:Y *34:10 18.8179 
2 *34:10 *211:B1 13.8 
3 *34:10 *210:D 19.0679 
*END

*D_NET *35 0.00182679
*CONN
*I *223:A2 I *D sky130_fd_sc_hd__o21ai_1
*I *244:B I *D sky130_fd_sc_hd__or3_1
*I *212:A_N I *D sky130_fd_sc_hd__and2b_1
*I *210:X O *D sky130_fd_sc_hd__and4_1
*CAP
1 *223:A2 0
2 *244:B 7.77619e-05
3 *212:A_N 0.000207255
4 *210:X 4.26984e-05
5 *35:23 0.000297424
6 *35:8 0.000469615
7 *212:A_N *212:B 0.000103253
8 *212:A_N *256:A 0.000153047
9 *244:B *223:B1 8.33472e-05
10 *244:B *47:10 3.14078e-05
11 *35:23 *256:A 0.000176234
12 *223:A1 *244:B 0.000184745
13 *244:A *35:23 0
14 *33:10 *212:A_N 0
15 *33:10 *35:23 0
*RES
1 *210:X *35:8 14.3357 
2 *35:8 *212:A_N 18.1214 
3 *35:8 *35:23 8.875 
4 *35:23 *244:B 11.9071 
5 *35:23 *223:A2 9.3 
*END

*D_NET *36 0.000698826
*CONN
*I *212:B I *D sky130_fd_sc_hd__and2b_1
*I *211:X O *D sky130_fd_sc_hd__a31o_1
*CAP
1 *212:B 0.000217826
2 *211:X 0.000217826
3 *210:B *212:B 0.000142856
4 *210:C *212:B 1.32552e-05
5 *210:D *212:B 3.80953e-06
6 *212:A_N *212:B 0.000103253
7 *33:10 *212:B 0
*RES
1 *211:X *212:B 31.1179 
*END

*D_NET *37 0.00243535
*CONN
*I *222:A I *D sky130_fd_sc_hd__xnor2_1
*I *236:C I *D sky130_fd_sc_hd__and3_1
*I *213:Y O *D sky130_fd_sc_hd__nand2_1
*CAP
1 *222:A 0.000748235
2 *236:C 4.3885e-05
3 *213:Y 5.66312e-05
4 *37:10 0.000848751
5 *222:A *222:B 0.000114914
6 *222:A *230:A1 1.98839e-05
7 *222:A *230:A2 0.000398514
8 *222:A *230:A3 3.57405e-05
9 *222:A *230:B1 7.83333e-06
10 *222:A *236:A 5.49544e-05
11 *222:A *76:49 6.8377e-06
12 *236:C *236:A 6.28435e-05
13 *37:10 *230:A1 3.63281e-05
*RES
1 *213:Y *37:10 19.3357 
2 *37:10 *236:C 9.90714 
3 *37:10 *222:A 19.6036 
*END

*D_NET *38 0.000757083
*CONN
*I *227:C I *D sky130_fd_sc_hd__nand3_1
*I *228:A I *D sky130_fd_sc_hd__xor2_1
*I *214:X O *D sky130_fd_sc_hd__and2_1
*CAP
1 *227:C 9.96435e-05
2 *228:A 0.000103289
3 *214:X 0
4 *38:4 0.000202933
5 *227:C *228:B 0.000183207
6 *227:C *237:B1 7.02836e-05
7 *228:A *228:B 9.77274e-05
*RES
1 *214:X *38:4 9.3 
2 *38:4 *228:A 11.4786 
3 *38:4 *227:C 12.4607 
*END

*D_NET *39 0.00069574
*CONN
*I *216:A0 I *D sky130_fd_sc_hd__mux2_1
*I *215:Y O *D sky130_fd_sc_hd__nand2_1
*CAP
1 *216:A0 6.53092e-05
2 *215:Y 6.53092e-05
3 *216:A0 *216:A1 0.000271076
4 *216:A0 *74:43 2.14757e-05
5 *216:A0 *74:50 0.00027257
*RES
1 *215:Y *216:A0 21.6 
*END

*D_NET *40 0.00204116
*CONN
*I *220:A I *D sky130_fd_sc_hd__nor2_1
*I *221:A I *D sky130_fd_sc_hd__xor2_1
*I *216:X O *D sky130_fd_sc_hd__mux2_1
*CAP
1 *220:A 0.000204153
2 *221:A 0
3 *216:X 0.000486825
4 *40:14 0.000690979
5 *220:A *220:B 9.60939e-05
6 *220:A *221:B 0.000108552
7 *40:14 *203:B1 5.48715e-05
8 *40:14 *74:50 4.78664e-05
9 *40:14 *76:49 0.000206064
10 *40:14 *77:61 0.00014576
*RES
1 *216:X *40:14 27.8179 
2 *40:14 *221:A 9.3 
3 *40:14 *220:A 13.1571 
*END

*D_NET *41 0.001032
*CONN
*I *228:B I *D sky130_fd_sc_hd__xor2_1
*I *217:Y O *D sky130_fd_sc_hd__nand2_1
*CAP
1 *228:B 0.000337937
2 *217:Y 0.000337937
3 *228:B *217:A 2.89114e-05
4 *228:B *237:B1 1.32552e-05
5 *227:B *228:B 3.30237e-05
6 *227:C *228:B 0.000183207
7 *228:A *228:B 9.77274e-05
*RES
1 *217:Y *228:B 24.9036 
*END

*D_NET *42 0.000600426
*CONN
*I *219:A0 I *D sky130_fd_sc_hd__mux2_1
*I *218:Y O *D sky130_fd_sc_hd__nand2_1
*CAP
1 *219:A0 6.63696e-05
2 *218:Y 6.63696e-05
3 *219:A0 *202:A 9.56564e-05
4 *219:A0 *218:A 9.90367e-05
5 *28:16 *219:A0 0.000272994
*RES
1 *218:Y *219:A0 21.6179 
*END

*D_NET *43 0.00105974
*CONN
*I *220:B I *D sky130_fd_sc_hd__nor2_1
*I *221:B I *D sky130_fd_sc_hd__xor2_1
*I *219:X O *D sky130_fd_sc_hd__mux2_1
*CAP
1 *220:B 3.68204e-05
2 *221:B 5.83706e-05
3 *219:X 0.000284835
4 *43:12 0.000380026
5 *43:12 *202:A 5.71472e-05
6 *43:12 *45:10 3.34295e-05
7 *43:12 *78:71 4.46186e-06
8 *220:A *220:B 9.60939e-05
9 *220:A *221:B 0.000108552
*RES
1 *219:X *43:12 23.2107 
2 *43:12 *221:B 10.675 
3 *43:12 *220:B 10.2464 
*END

*D_NET *44 0.00090013
*CONN
*I *230:B1 I *D sky130_fd_sc_hd__a31o_1
*I *220:Y O *D sky130_fd_sc_hd__nor2_1
*CAP
1 *230:B1 0.000285642
2 *220:Y 0.000285642
3 *230:B1 *222:B 9.71197e-05
4 *230:B1 *230:A1 3.08664e-05
5 *230:B1 *230:A2 1.59373e-05
6 *230:B1 *230:A3 9.87617e-05
7 *230:B1 *45:10 7.8327e-05
8 *222:A *230:B1 7.83333e-06
*RES
1 *220:Y *230:B1 33.2786 
*END

*D_NET *45 0.00101491
*CONN
*I *222:B I *D sky130_fd_sc_hd__xnor2_1
*I *230:A3 I *D sky130_fd_sc_hd__a31o_1
*I *221:X O *D sky130_fd_sc_hd__xor2_1
*CAP
1 *222:B 0.000115307
2 *230:A3 2.30213e-05
3 *221:X 0.000139981
4 *45:10 0.000278309
5 *45:10 *76:49 0
6 *222:A *222:B 0.000114914
7 *222:A *230:A3 3.57405e-05
8 *230:B1 *222:B 9.71197e-05
9 *230:B1 *230:A3 9.87617e-05
10 *230:B1 *45:10 7.8327e-05
11 *43:12 *45:10 3.34295e-05
*RES
1 *221:X *45:10 21.1571 
2 *45:10 *230:A3 10.2464 
3 *45:10 *222:B 12.3 
*END

*D_NET *46 0.00135363
*CONN
*I *223:B1 I *D sky130_fd_sc_hd__o21ai_1
*I *244:C I *D sky130_fd_sc_hd__or3_1
*I *222:Y O *D sky130_fd_sc_hd__xnor2_1
*CAP
1 *223:B1 0.000110023
2 *244:C 0
3 *222:Y 0.000503404
4 *46:12 0.000613428
5 *223:B1 *245:B 2.3253e-05
6 *223:B1 *47:10 1.21868e-05
7 *46:12 *245:B 0
8 *46:12 *47:10 0
9 *223:A1 *223:B1 7.99227e-06
10 *244:B *223:B1 8.33472e-05
*RES
1 *222:Y *46:12 24.5857 
2 *46:12 *244:C 9.3 
3 *46:12 *223:B1 12.0232 
*END

*D_NET *47 0.0014038
*CONN
*I *234:A I *D sky130_fd_sc_hd__xnor2_1
*I *233:A_N I *D sky130_fd_sc_hd__and2b_1
*I *245:A I *D sky130_fd_sc_hd__and2_1
*I *223:Y O *D sky130_fd_sc_hd__o21ai_1
*CAP
1 *234:A 0
2 *233:A_N 6.22617e-05
3 *245:A 0
4 *223:Y 0.000117485
5 *47:23 0.000381692
6 *47:10 0.000436916
7 *233:A_N *234:B 5.62995e-05
8 *47:10 *245:B 0.000182871
9 *47:23 *258:A 0.000102197
10 P[4] *47:10 2.04825e-05
11 *223:B1 *47:10 1.21868e-05
12 *244:B *47:10 3.14078e-05
13 *46:12 *47:10 0
*RES
1 *223:Y *47:10 16.6929 
2 *47:10 *245:A 13.8 
3 *47:10 *47:23 10.7679 
4 *47:23 *233:A_N 10.6571 
5 *47:23 *234:A 9.3 
*END

*D_NET *48 0.000793872
*CONN
*I *226:B1 I *D sky130_fd_sc_hd__a211o_1
*I *224:Y O *D sky130_fd_sc_hd__a21oi_1
*CAP
1 *226:B1 0.000198403
2 *224:Y 0.000198403
3 *226:B1 *224:A2 0.000128146
4 *226:B1 *75:6 0.000181796
5 *226:A2 *226:B1 8.71234e-05
6 *249:A *226:B1 0
*RES
1 *224:Y *226:B1 32.225 
*END

*D_NET *49 0.00132777
*CONN
*I *243:A2 I *D sky130_fd_sc_hd__a211o_1
*I *226:C1 I *D sky130_fd_sc_hd__a211o_1
*I *225:X O *D sky130_fd_sc_hd__and3_1
*CAP
1 *243:A2 0.000182411
2 *226:C1 0.000171908
3 *225:X 7.47741e-05
4 *49:6 0.000429094
5 *226:C1 *225:B 0
6 *226:C1 *226:A1 5.27816e-05
7 *226:C1 *50:8 9.65825e-06
8 *226:C1 *76:6 3.14048e-05
9 *226:C1 *76:27 1.39841e-05
10 *243:A2 *240:B 0
11 *243:A2 *243:A1 0.000201127
12 *243:A2 *60:10 0
13 *243:A2 *80:14 0.00010326
14 *49:6 *76:27 5.7365e-05
*RES
1 *225:X *49:6 10.2464 
2 *49:6 *226:C1 12.6393 
3 *49:6 *243:A2 22.3714 
*END

*D_NET *50 0.00141877
*CONN
*I *237:A1 I *D sky130_fd_sc_hd__o21ai_1
*I *229:A I *D sky130_fd_sc_hd__xor2_1
*I *226:X O *D sky130_fd_sc_hd__a211o_1
*CAP
1 *237:A1 0.000117828
2 *229:A 0.000138451
3 *226:X 6.23804e-05
4 *50:8 0.00031866
5 *229:A *225:C 8.66193e-05
6 *229:A *226:A1 0
7 *229:A *229:B 0.000271352
8 *229:A *76:36 3.77686e-05
9 *237:A1 *229:B 0.000195547
10 *237:A1 *76:27 2.97756e-05
11 *237:A1 *80:16 0
12 *237:A1 *80:20 0
13 *50:8 *225:C 2.10884e-06
14 *50:8 *226:A1 3.99614e-06
15 *50:8 *76:27 0.000144623
16 *226:C1 *50:8 9.65825e-06
*RES
1 *226:X *50:8 11.0857 
2 *50:8 *229:A 13.425 
3 *50:8 *237:A1 20.8536 
*END

*D_NET *51 0.000976091
*CONN
*I *237:B1 I *D sky130_fd_sc_hd__o21ai_1
*I *227:Y O *D sky130_fd_sc_hd__nand3_1
*CAP
1 *237:B1 0.000285404
2 *227:Y 0.000285404
3 *237:B1 *78:10 0
4 *237:B1 *79:44 0.000321745
5 *227:C *237:B1 7.02836e-05
6 *228:B *237:B1 1.32552e-05
*RES
1 *227:Y *237:B1 33.4393 
*END

*D_NET *52 0.00206513
*CONN
*I *229:B I *D sky130_fd_sc_hd__xor2_1
*I *237:A2 I *D sky130_fd_sc_hd__o21ai_1
*I *228:X O *D sky130_fd_sc_hd__xor2_1
*CAP
1 *229:B 0.000212961
2 *237:A2 4.16506e-05
3 *228:X 0.000191745
4 *52:8 0.000446357
5 *229:B *225:A 9.15804e-05
6 *229:B *60:10 2.26327e-05
7 *229:B *76:36 0.000271352
8 *229:B *79:44 6.40269e-05
9 *229:B *79:72 4.56437e-05
10 *229:B *80:20 0
11 *237:A2 *75:19 2.89114e-05
12 *52:8 *79:44 0.000181368
13 *52:8 *80:20 0
14 *229:A *229:B 0.000271352
15 *237:A1 *229:B 0.000195547
*RES
1 *228:X *52:8 18.175 
2 *52:8 *237:A2 14.3357 
3 *52:8 *229:B 20.5143 
*END

*D_NET *53 0.00215049
*CONN
*I *231:A I *D sky130_fd_sc_hd__and2_1
*I *232:A I *D sky130_fd_sc_hd__xor2_1
*I *229:X O *D sky130_fd_sc_hd__xor2_1
*CAP
1 *231:A 0.000130013
2 *232:A 0
3 *229:X 0.000504823
4 *53:12 0.000634836
5 *231:A *231:B 0.000286425
6 *231:A *55:12 0.000232124
7 *231:A *56:6 1.74352e-05
8 *53:12 *236:A 0.00010326
9 *53:12 *238:A 1.08359e-05
10 *53:12 *238:B 4.46186e-06
11 *53:12 *239:A 9.71197e-05
12 *53:12 *55:12 0.000118321
13 *53:12 *59:8 1.08359e-05
14 *53:12 *60:10 0
*RES
1 *229:X *53:12 27.7643 
2 *53:12 *232:A 9.3 
3 *53:12 *231:A 13.5679 
*END

*D_NET *54 0.000753268
*CONN
*I *231:B I *D sky130_fd_sc_hd__and2_1
*I *232:B I *D sky130_fd_sc_hd__xor2_1
*I *230:X O *D sky130_fd_sc_hd__a31o_1
*CAP
1 *231:B 6.9944e-05
2 *232:B 0
3 *230:X 0.000123112
4 *54:12 0.000193056
5 *231:B *56:6 8.07313e-05
6 *231:A *231:B 0.000286425
*RES
1 *230:X *54:12 20.4786 
2 *54:12 *232:B 9.3 
3 *54:12 *231:B 12.3179 
*END

*D_NET *55 0.00151471
*CONN
*I *235:A I *D sky130_fd_sc_hd__nor2_1
*I *241:A1 I *D sky130_fd_sc_hd__o21ba_1
*I *231:X O *D sky130_fd_sc_hd__and2_1
*CAP
1 *235:A 0
2 *241:A1 6.49159e-05
3 *231:X 0.000410331
4 *55:12 0.000475247
5 *241:A1 *235:B 5.27324e-05
6 *241:A1 *57:14 0.000161036
7 *231:A *55:12 0.000232124
8 *53:12 *55:12 0.000118321
*RES
1 *231:X *55:12 24.175 
2 *55:12 *241:A1 11.5143 
3 *55:12 *235:A 9.3 
*END

*D_NET *56 0.00113624
*CONN
*I *234:B I *D sky130_fd_sc_hd__xnor2_1
*I *233:B I *D sky130_fd_sc_hd__and2b_1
*I *232:X O *D sky130_fd_sc_hd__xor2_1
*CAP
1 *234:B 0.000168191
2 *233:B 0
3 *232:X 0.000322699
4 *56:6 0.000490889
5 *231:A *56:6 1.74352e-05
6 *231:B *56:6 8.07313e-05
7 *233:A_N *234:B 5.62995e-05
*RES
1 *232:X *56:6 14.7643 
2 *56:6 *233:B 9.3 
3 *56:6 *234:B 12.3179 
*END

*D_NET *57 0.00237633
*CONN
*I *235:B I *D sky130_fd_sc_hd__nor2_1
*I *241:A2 I *D sky130_fd_sc_hd__o21ba_1
*I *233:X O *D sky130_fd_sc_hd__and2b_1
*CAP
1 *235:B 7.31191e-05
2 *241:A2 0
3 *233:X 0.00100231
4 *57:14 0.00107542
5 *235:B *241:B1_N 8.29398e-06
6 *57:14 *241:B1_N 3.41517e-06
7 *241:A1 *235:B 5.27324e-05
8 *241:A1 *57:14 0.000161036
*RES
1 *233:X *57:14 30.8714 
2 *57:14 *241:A2 9.3 
3 *57:14 *235:B 11.5143 
*END

*D_NET *58 0.000796397
*CONN
*I *242:A I *D sky130_fd_sc_hd__xor2_1
*I *235:Y O *D sky130_fd_sc_hd__nor2_1
*CAP
1 *242:A 0.00035885
2 *235:Y 0.00035885
3 *242:A *242:B 0
4 *242:A *259:A 7.86973e-05
*RES
1 *235:Y *242:A 33.6893 
*END

*D_NET *59 0.00205936
*CONN
*I *238:A I *D sky130_fd_sc_hd__and2_1
*I *239:A I *D sky130_fd_sc_hd__nor2_1
*I *236:X O *D sky130_fd_sc_hd__and3_1
*CAP
1 *238:A 0.000165459
2 *239:A 0.000149906
3 *236:X 7.17667e-05
4 *59:8 0.000387132
5 *238:A *238:B 0
6 *238:A *243:C1 9.90367e-05
7 *238:A *63:6 9.90367e-05
8 *239:A *236:A 0.000531273
9 *239:A *238:B 0.000318107
10 *239:A *240:B 1.55885e-05
11 *59:8 *236:A 0.00010326
12 *53:12 *238:A 1.08359e-05
13 *53:12 *239:A 9.71197e-05
14 *53:12 *59:8 1.08359e-05
*RES
1 *236:X *59:8 15.4429 
2 *59:8 *239:A 19.6929 
3 *59:8 *238:A 17.3 
*END

*D_NET *60 0.00149008
*CONN
*I *238:B I *D sky130_fd_sc_hd__and2_1
*I *239:B I *D sky130_fd_sc_hd__nor2_1
*I *237:Y O *D sky130_fd_sc_hd__o21ai_1
*CAP
1 *238:B 0.000247586
2 *239:B 0
3 *237:Y 0.000227607
4 *60:10 0.000475193
5 *238:B *240:B 6.05161e-06
6 *60:10 *225:A 0.000100831
7 *60:10 *225:C 7.83587e-05
8 *60:10 *236:A 0
9 *60:10 *79:72 9.25014e-06
10 *60:10 *80:14 0
11 *229:B *60:10 2.26327e-05
12 *238:A *238:B 0
13 *239:A *238:B 0.000318107
14 *243:A2 *60:10 0
15 *53:12 *238:B 4.46186e-06
16 *53:12 *60:10 0
*RES
1 *237:Y *60:10 22.675 
2 *60:10 *239:B 9.3 
3 *60:10 *238:B 23.55 
*END

*D_NET *61 0.000762997
*CONN
*I *243:B1 I *D sky130_fd_sc_hd__a211o_1
*I *240:A I *D sky130_fd_sc_hd__or2_1
*I *238:X O *D sky130_fd_sc_hd__and2_1
*CAP
1 *243:B1 0.000138306
2 *240:A 0
3 *238:X 3.1347e-05
4 *61:6 0.000169653
5 *243:B1 *243:A1 5.7661e-06
6 *243:B1 *243:C1 0.000216005
7 *61:6 *243:C1 0.000144773
8 *61:6 *63:6 5.71472e-05
*RES
1 *238:X *61:6 10.6571 
2 *61:6 *240:A 9.3 
3 *61:6 *243:B1 12.7464 
*END

*D_NET *62 0.000277378
*CONN
*I *240:B I *D sky130_fd_sc_hd__or2_1
*I *239:Y O *D sky130_fd_sc_hd__nor2_1
*CAP
1 *240:B 0.000127869
2 *239:Y 0.000127869
3 *238:B *240:B 6.05161e-06
4 *239:A *240:B 1.55885e-05
5 *243:A2 *240:B 0
*RES
1 *239:Y *240:B 29.475 
*END

*D_NET *63 0.000986986
*CONN
*I *241:B1_N I *D sky130_fd_sc_hd__o21ba_1
*I *242:B I *D sky130_fd_sc_hd__xor2_1
*I *240:X O *D sky130_fd_sc_hd__or2_1
*CAP
1 *241:B1_N 7.26274e-05
2 *242:B 0.000137263
3 *240:X 0.000145349
4 *63:6 0.00035524
5 *63:6 *243:C1 0.000108613
6 *235:B *241:B1_N 8.29398e-06
7 *238:A *63:6 9.90367e-05
8 *242:A *242:B 0
9 *57:14 *241:B1_N 3.41517e-06
10 *61:6 *63:6 5.71472e-05
*RES
1 *240:X *63:6 12.7107 
2 *63:6 *242:B 20.55 
3 *63:6 *241:B1_N 10.675 
*END

*D_NET *64 0.00119535
*CONN
*I *243:C1 I *D sky130_fd_sc_hd__a211o_1
*I *241:X O *D sky130_fd_sc_hd__o21ba_1
*CAP
1 *243:C1 0.00031346
2 *241:X 0.00031346
3 *243:C1 *243:A1 0
4 *238:A *243:C1 9.90367e-05
5 *243:B1 *243:C1 0.000216005
6 *61:6 *243:C1 0.000144773