*SPEF "ieee 1481-1999"
*DESIGN "mult4_SARSANPASOS_VENTAJA_RUIDO_e8_SARSA_RUIDO_e9_SARSA_RUIDO_e9_SARSA_RUIDO_e9"
*DATE "14:21:58 Tuesday September 16, 2025"
*VENDOR "The OpenROAD Project"
*PROGRAM "OpenROAD"
*VERSION "edf00dff99f6c40d67a30c0e22a8191c5d2ed9d6"
*DESIGN_FLOW "NAME_SCOPE LOCAL" "PIN_CAP NONE"
*DIVIDER /
*DELIMITER :
*BUS_DELIMITER []
*T_UNIT 1 NS
*C_UNIT 1 PF
*R_UNIT 1 OHM
*L_UNIT 1 HENRY

*NAME_MAP
*1 A[0]
*2 A[1]
*3 A[2]
*4 A[3]
*5 B[0]
*6 B[1]
*7 B[2]
*8 B[3]
*9 P[0]
*10 P[1]
*11 P[2]
*12 P[3]
*13 P[4]
*14 P[5]
*15 P[6]
*16 P[7]
*19 _00_
*20 _01_
*21 _02_
*22 _03_
*23 _04_
*24 _05_
*25 _06_
*26 _07_
*27 _08_
*28 _09_
*29 _10_
*30 _11_
*31 _12_
*32 _13_
*33 _14_
*34 _15_
*35 _16_
*36 _17_
*37 _18_
*38 _19_
*39 _20_
*40 _21_
*41 _22_
*42 _23_
*43 _24_
*44 _25_
*45 mul_ll\.pp1
*46 net1
*47 net10
*48 net11
*49 net12
*50 net13
*51 net14
*52 net15
*53 net16
*54 net2
*55 net3
*56 net4
*57 net5
*58 net6
*59 net7
*60 net8
*61 net9
*62 FILLER_0_15
*63 FILLER_0_20
*64 FILLER_0_3
*65 FILLER_0_36
*66 FILLER_0_42
*67 FILLER_0_48
*68 FILLER_0_57
*69 FILLER_0_69
*70 FILLER_1_15
*71 FILLER_1_3
*72 FILLER_1_44
*73 FILLER_1_62
*74 FILLER_1_74
*75 FILLER_1_80
*76 FILLER_2_18
*77 FILLER_2_22
*78 FILLER_2_26
*79 FILLER_2_37
*80 FILLER_2_6
*81 FILLER_2_75
*82 FILLER_3_23
*83 FILLER_3_3
*84 FILLER_3_35
*85 FILLER_3_47
*86 FILLER_3_55
*87 FILLER_3_57
*88 FILLER_3_64
*89 FILLER_3_76
*90 FILLER_3_80
*91 FILLER_4_13
*92 FILLER_4_21
*93 FILLER_4_47
*94 FILLER_4_59
*95 FILLER_4_71
*96 FILLER_5_19
*97 FILLER_5_31
*98 FILLER_5_43
*99 FILLER_5_55
*100 FILLER_5_7
*101 FILLER_5_73
*102 FILLER_6_20
*103 FILLER_6_43
*104 FILLER_6_55
*105 FILLER_6_6
*106 FILLER_6_67
*107 FILLER_6_79
*108 FILLER_7_15
*109 FILLER_7_27
*110 FILLER_7_40
*111 FILLER_7_46
*112 FILLER_7_54
*113 FILLER_7_64
*114 FILLER_7_7
*115 FILLER_7_76
*116 FILLER_8_15
*117 FILLER_8_27
*118 FILLER_8_29
*119 FILLER_8_3
*120 FILLER_8_41
*121 FILLER_8_53
*122 FILLER_8_65
*123 FILLER_8_77
*124 FILLER_9_19
*125 FILLER_9_27
*126 FILLER_9_29
*127 FILLER_9_41
*128 FILLER_9_53
*129 FILLER_9_57
*130 FILLER_9_69
*131 FILLER_9_7
*132 PHY_EDGE_ROW_0_Left_10
*133 PHY_EDGE_ROW_0_Right_0
*134 PHY_EDGE_ROW_1_Left_11
*135 PHY_EDGE_ROW_1_Right_1
*136 PHY_EDGE_ROW_2_Left_12
*137 PHY_EDGE_ROW_2_Right_2
*138 PHY_EDGE_ROW_3_Left_13
*139 PHY_EDGE_ROW_3_Right_3
*140 PHY_EDGE_ROW_4_Left_14
*141 PHY_EDGE_ROW_4_Right_4
*142 PHY_EDGE_ROW_5_Left_15
*143 PHY_EDGE_ROW_5_Right_5
*144 PHY_EDGE_ROW_6_Left_16
*145 PHY_EDGE_ROW_6_Right_6
*146 PHY_EDGE_ROW_7_Left_17
*147 PHY_EDGE_ROW_7_Right_7
*148 PHY_EDGE_ROW_8_Left_18
*149 PHY_EDGE_ROW_8_Right_8
*150 PHY_EDGE_ROW_9_Left_19
*151 PHY_EDGE_ROW_9_Right_9
*152 TAP_TAPCELL_ROW_0_20
*153 TAP_TAPCELL_ROW_0_21
*154 TAP_TAPCELL_ROW_1_22
*155 TAP_TAPCELL_ROW_2_23
*156 TAP_TAPCELL_ROW_3_24
*157 TAP_TAPCELL_ROW_4_25
*158 TAP_TAPCELL_ROW_5_26
*159 TAP_TAPCELL_ROW_6_27
*160 TAP_TAPCELL_ROW_7_28
*161 TAP_TAPCELL_ROW_8_29
*162 TAP_TAPCELL_ROW_9_30
*163 TAP_TAPCELL_ROW_9_31
*164 _26_
*165 _27_
*166 _28_
*167 _29_
*168 _30_
*169 _31_
*170 _32_
*171 _33_
*172 _34_
*173 _35_
*174 _36_
*175 _37_
*176 _38_
*177 _39_
*178 _40_
*179 _41_
*180 _42_
*181 _43_
*182 _44_
*183 _45_
*184 _46_
*185 _47_
*186 _48_
*187 _49_
*188 _50_
*189 _51_
*190 _52_
*191 _53_
*192 _54_
*193 _55_
*194 _56_
*195 _57_
*196 _58_
*197 _59_
*198 _60_
*199 input1
*200 input2
*201 input3
*202 input4
*203 input5
*204 input6
*205 input7
*206 input8
*207 output10
*208 output11
*209 output12
*210 output13
*211 output14
*212 output15
*213 output16
*214 output9

*PORTS
A[0] I
A[1] I
A[2] I
A[3] I
B[0] I
B[1] I
B[2] I
B[3] I
P[0] O
P[1] O
P[2] O
P[3] O
P[4] O
P[5] O
P[6] O
P[7] O

*D_NET *1 0.000826256
*CONN
*P A[0] I
*I *199:A I *D sky130_fd_sc_hd__buf_1
*CAP
1 A[0] 0.000413128
2 *199:A 0.000413128
3 *199:A P[0] 0
4 *199:A *201:A 0
5 *199:A *58:55 0
*RES
1 A[0] *199:A 21.9607 
*END

*D_NET *2 0.000618322
*CONN
*P A[1] I
*I *200:A I *D sky130_fd_sc_hd__buf_1
*CAP
1 A[1] 0.000295572
2 *200:A 0.000295572
3 *200:A *204:A 2.71788e-05
*RES
1 A[1] *200:A 20.7838 
*END

*D_NET *3 0.000869394
*CONN
*P A[2] I
*I *201:A I *D sky130_fd_sc_hd__clkbuf_2
*CAP
1 A[2] 0.000434697
2 *201:A 0.000434697
3 *199:A *201:A 0
*RES
1 A[2] *201:A 21.9429 
*END

*D_NET *4 0.000534185
*CONN
*P A[3] I
*I *202:A I *D sky130_fd_sc_hd__buf_1
*CAP
1 A[3] 0.000236739
2 *202:A 0.000236739
3 *202:A P[6] 0
4 *202:A P[7] 3.19385e-05
5 *202:A *206:A 2.87684e-05
*RES
1 A[3] *202:A 18.73 
*END

*D_NET *5 0.00084331
*CONN
*P B[0] I
*I *203:A I *D sky130_fd_sc_hd__buf_1
*CAP
1 B[0] 0.000421655
2 *203:A 0.000421655
3 *203:A *205:A 0
4 *203:A *58:36 0
*RES
1 B[0] *203:A 21.8357 
*END

*D_NET *6 0.000699525
*CONN
*P B[1] I
*I *204:A I *D sky130_fd_sc_hd__dlymetal6s2s_1
*CAP
1 B[1] 0.000321177
2 *204:A 0.000321177
3 *204:A *206:A 2.99915e-05
4 *200:A *204:A 2.71788e-05
*RES
1 B[1] *204:A 21.6946 
*END

*D_NET *7 0.000970142
*CONN
*P B[2] I
*I *205:A I *D sky130_fd_sc_hd__buf_1
*CAP
1 B[2] 0.00043172
2 *205:A 0.00043172
3 *205:A P[2] 0
4 *205:A *208:A 9.25014e-06
5 *205:A *58:36 8.50152e-05
6 *205:A *59:8 1.24368e-05
7 *203:A *205:A 0
*RES
1 B[2] *205:A 22.2464 
*END

*D_NET *8 0.000719045
*CONN
*P B[3] I
*I *206:A I *D sky130_fd_sc_hd__clkbuf_2
*CAP
1 B[3] 0.000330142
2 *206:A 0.000330142
3 *202:A *206:A 2.87684e-05
4 *204:A *206:A 2.99915e-05
*RES
1 B[3] *206:A 21.8017 
*END

*D_NET *9 0.00101219
*CONN
*P P[0] O
*I *214:X O *D sky130_fd_sc_hd__buf_2
*CAP
1 P[0] 0.000450554
2 *214:X 0.000450554
3 P[0] P[2] 0
4 P[0] *167:B2 1.20377e-05
5 P[0] *58:55 9.90431e-05
6 *199:A P[0] 0
*RES
1 *214:X P[0] 22.05 
*END

*D_NET *10 0.000507726
*CONN
*P P[1] O
*I *207:X O *D sky130_fd_sc_hd__buf_2
*CAP
1 P[1] 0.000207425
2 *207:X 0.000207425
3 P[1] P[3] 9.28756e-05
4 P[1] *198:A 0
*RES
1 *207:X P[1] 18.4985 
*END

*D_NET *11 0.00123185
*CONN
*P P[2] O
*I *208:X O *D sky130_fd_sc_hd__buf_2
*CAP
1 P[2] 0.000494645
2 *208:X 0.000494645
3 P[2] *167:A2 5.58941e-05
4 P[2] *208:A 0
5 P[2] *58:55 0
6 P[2] *59:8 0.000186662
7 P[0] P[2] 0
8 *205:A P[2] 0
*RES
1 *208:X P[2] 23.675 
*END

*D_NET *12 0.000640218
*CONN
*P P[3] O
*I *209:X O *D sky130_fd_sc_hd__buf_2
*CAP
1 P[3] 0.000242298
2 *209:X 0.000242298
3 P[3] *209:A 6.27457e-05
4 P[1] P[3] 9.28756e-05
*RES
1 *209:X P[3] 19.4092 
*END

*D_NET *13 0.000480697
*CONN
*P P[4] O
*I *210:X O *D sky130_fd_sc_hd__buf_2
*CAP
1 P[4] 0.000187482
2 *210:X 0.000187482
3 P[4] P[5] 9.28756e-05
4 P[4] *210:A 1.28585e-05
*RES
1 *210:X P[4] 18.1949 
*END

*D_NET *14 0.000640218
*CONN
*P P[5] O
*I *211:X O *D sky130_fd_sc_hd__buf_2
*CAP
1 P[5] 0.000242298
2 *211:X 0.000242298
3 P[5] *211:A 6.27457e-05
4 P[4] P[5] 9.28756e-05
*RES
1 *211:X P[5] 19.4092 
*END

*D_NET *15 0.000659185
*CONN
*P P[6] O
*I *212:X O *D sky130_fd_sc_hd__buf_2
*CAP
1 P[6] 0.000288682
2 *212:X 0.000288682
3 P[6] P[7] 2.25951e-05
4 P[6] *212:A 5.92267e-05
5 *202:A P[6] 0
*RES
1 *212:X P[6] 19.4092 
*END

*D_NET *16 0.000724586
*CONN
*P P[7] O
*I *213:X O *D sky130_fd_sc_hd__buf_2
*CAP
1 P[7] 0.000335026
2 *213:X 0.000335026
3 P[6] P[7] 2.25951e-05
4 *202:A P[7] 3.19385e-05
*RES
1 *213:X P[7] 20.891 
*END

*D_NET *19 0.000712258
*CONN
*I *169:A I *D sky130_fd_sc_hd__xor2_1
*I *165:Y O *D sky130_fd_sc_hd__nand2_1
*CAP
1 *169:A 0.000239092
2 *165:Y 0.000239092
3 *169:A *54:10 8.25843e-06
4 *169:A *57:12 0.000225815
*RES
1 *165:Y *169:A 31.4214 
*END

*D_NET *20 0.00114737
*CONN
*I *181:B1 I *D sky130_fd_sc_hd__a32o_1
*I *168:A2 I *D sky130_fd_sc_hd__a21bo_1
*I *166:X O *D sky130_fd_sc_hd__and3_1
*CAP
1 *181:B1 2.37622e-05
2 *168:A2 0.000232652
3 *166:X 0.000142982
4 *20:8 0.000399396
5 *168:A2 *168:A1 9.45734e-05
6 *168:A2 *168:B1_N 5.33005e-05
7 *168:A2 *181:A3 1.92412e-05
8 *181:B1 *181:A3 2.83508e-05
9 *20:8 *166:C 6.23493e-05
10 *20:8 *181:A3 7.09928e-05
11 *20:8 *58:64 1.97695e-05
*RES
1 *166:X *20:8 12.3179 
2 *20:8 *168:A2 13.5679 
3 *20:8 *181:B1 9.96964 
*END

*D_NET *21 0.00121373
*CONN
*I *181:A3 I *D sky130_fd_sc_hd__a32o_1
*I *168:B1_N I *D sky130_fd_sc_hd__a21bo_1
*I *167:X O *D sky130_fd_sc_hd__a22o_1
*CAP
1 *181:A3 0.000138547
2 *168:B1_N 1.69531e-05
3 *167:X 7.61021e-05
4 *21:8 0.000231602
5 *168:B1_N *168:A1 5.33005e-05
6 *181:A3 *166:C 0.000274969
7 *181:A3 *167:A2 5.41794e-05
8 *181:A3 *168:A1 9.41642e-05
9 *181:A3 *58:36 0
10 *21:8 *167:A2 0.000102032
11 *21:8 *208:A 0
12 *21:8 *58:36 0
13 *168:A2 *168:B1_N 5.33005e-05
14 *168:A2 *181:A3 1.92412e-05
15 *181:B1 *181:A3 2.83508e-05
16 *20:8 *181:A3 7.09928e-05
*RES
1 *167:X *21:8 15.4429 
2 *21:8 *168:B1_N 14.3357 
3 *21:8 *181:A3 17.9607 
*END

*D_NET *22 0.000244307
*CONN
*I *169:B I *D sky130_fd_sc_hd__xor2_1
*I *168:X O *D sky130_fd_sc_hd__a21bo_1
*CAP
1 *169:B 0.000107698
2 *168:X 0.000107698
3 *169:B *208:A 2.89114e-05
*RES
1 *168:X *169:B 20.3679 
*END

*D_NET *23 0.000732357
*CONN
*I *194:A I *D sky130_fd_sc_hd__xnor2_1
*I *170:Y O *D sky130_fd_sc_hd__nand2_1
*CAP
1 *194:A 0.00020877
2 *170:Y 0.00020877
3 *194:A *194:B 0.000314816
*RES
1 *170:Y *194:A 32.1357 
*END

*D_NET *24 0.0015793
*CONN
*I *174:A1 I *D sky130_fd_sc_hd__a21oi_1
*I *186:B1_N I *D sky130_fd_sc_hd__a21boi_1
*I *175:A I *D sky130_fd_sc_hd__and3_1
*I *171:Y O *D sky130_fd_sc_hd__nand4_1
*CAP
1 *174:A1 0
2 *186:B1_N 0
3 *175:A 9.56129e-05
4 *171:Y 0.000153631
5 *24:22 0.00025998
6 *24:12 0.000317999
7 *175:A *175:C 4.33899e-05
8 *175:A *186:A1 5.49544e-05
9 *175:A *25:27 0.0001399
10 *175:A *26:27 0.000181995
11 *175:A *27:8 1.69961e-05
12 *24:12 *25:10 9.81685e-05
13 *24:12 *25:27 9.25014e-06
14 *24:12 *26:10 3.25078e-05
15 *24:12 *58:28 3.69047e-06
16 *24:22 *25:27 7.21765e-05
17 *24:22 *27:8 9.90431e-05
*RES
1 *171:Y *24:12 20.6929 
2 *24:12 *24:22 3.69643 
3 *24:22 *175:A 12.3179 
4 *24:22 *186:B1_N 9.3 
5 *24:12 *174:A1 9.3 
*END

*D_NET *25 0.00274116
*CONN
*I *186:A1 I *D sky130_fd_sc_hd__a21boi_1
*I *175:B I *D sky130_fd_sc_hd__and3_1
*I *174:A2 I *D sky130_fd_sc_hd__a21oi_1
*I *172:X O *D sky130_fd_sc_hd__a22o_1
*CAP
1 *186:A1 3.06183e-05
2 *175:B 0.000233343
3 *174:A2 8.61316e-06
4 *172:X 0.000282084
5 *25:27 0.000538813
6 *25:10 0.000565548
7 *174:A2 *26:27 0
8 *174:A2 *60:12 0
9 *175:B *38:10 0.000228514
10 *175:B *55:54 0.000123295
11 *25:10 *171:D 5.52238e-05
12 *25:10 *172:A1 1.02936e-05
13 *25:10 *26:10 3.69865e-05
14 *25:10 *54:16 0
15 *25:10 *58:28 0.000195131
16 *25:10 *58:36 1.52978e-05
17 *25:10 *60:12 0
18 *25:27 *26:10 3.17148e-05
19 *25:27 *26:27 1.12323e-05
20 *175:A *186:A1 5.49544e-05
21 *175:A *25:27 0.0001399
22 *24:12 *25:10 9.81685e-05
23 *24:12 *25:27 9.25014e-06
24 *24:22 *25:27 7.21765e-05
*RES
1 *172:X *25:10 19.5054 
2 *25:10 *174:A2 14.0768 
3 *25:10 *25:27 8.61607 
4 *25:27 *175:B 22.1214 
5 *25:27 *186:A1 9.83571 
*END

*D_NET *26 0.00176826
*CONN
*I *175:C I *D sky130_fd_sc_hd__and3_1
*I *186:A2 I *D sky130_fd_sc_hd__a21boi_1
*I *174:B1 I *D sky130_fd_sc_hd__a21oi_1
*I *173:X O *D sky130_fd_sc_hd__and2_1
*CAP
1 *175:C 7.28964e-05
2 *186:A2 0
3 *174:B1 0
4 *173:X 0.000253961
5 *26:27 0.000246614
6 *26:10 0.000427679
7 *175:C *27:8 0.000127765
8 *26:10 *54:36 0.00010096
9 *26:10 *55:54 0
10 *26:10 *58:36 0
11 *26:27 *27:8 0.000180072
12 *26:27 *55:54 2.04825e-05
13 *174:A2 *26:27 0
14 *175:A *175:C 4.33899e-05
15 *175:A *26:27 0.000181995
16 *24:12 *26:10 3.25078e-05
17 *25:10 *26:10 3.69865e-05
18 *25:27 *26:10 3.17148e-05
19 *25:27 *26:27 1.12323e-05
*RES
1 *173:X *26:10 18.5143 
2 *26:10 *174:B1 13.8 
3 *26:10 *26:27 8.17857 
4 *26:27 *186:A2 9.3 
5 *26:27 *175:C 11.2821 
*END

*D_NET *27 0.00174918
*CONN
*I *184:A I *D sky130_fd_sc_hd__nor3_1
*I *176:A I *D sky130_fd_sc_hd__nor2_1
*I *174:Y O *D sky130_fd_sc_hd__a21oi_1
*CAP
1 *184:A 0
2 *176:A 0.000251607
3 *174:Y 0.000188095
4 *27:8 0.000439702
5 *176:A *176:B 5.52068e-05
6 *176:A *28:6 2.07771e-05
7 *27:8 *28:6 5.68713e-05
8 *27:8 *38:10 0.000313044
9 *175:A *27:8 1.69961e-05
10 *175:C *27:8 0.000127765
11 *24:22 *27:8 9.90431e-05
12 *26:27 *27:8 0.000180072
*RES
1 *174:Y *27:8 15.1929 
2 *27:8 *176:A 14.0589 
3 *27:8 *184:A 9.3 
*END

*D_NET *28 0.000554733
*CONN
*I *176:B I *D sky130_fd_sc_hd__nor2_1
*I *184:B I *D sky130_fd_sc_hd__nor3_1
*I *175:X O *D sky130_fd_sc_hd__and3_1
*CAP
1 *176:B 0.000134823
2 *184:B 0
3 *175:X 6.94486e-05
4 *28:6 0.000204272
5 *176:B *29:10 1.33343e-05
6 *176:A *176:B 5.52068e-05
7 *176:A *28:6 2.07771e-05
8 *27:8 *28:6 5.68713e-05
*RES
1 *175:X *28:6 10.6571 
2 *28:6 *184:B 9.3 
3 *28:6 *176:B 11.8 
*END

*D_NET *29 0.00179432
*CONN
*I *190:B1 I *D sky130_fd_sc_hd__o21a_1
*I *185:A I *D sky130_fd_sc_hd__xnor2_1
*I *176:Y O *D sky130_fd_sc_hd__nor2_1
*CAP
1 *190:B1 2.37282e-05
2 *185:A 0.000140284
3 *176:Y 0.000539206
4 *29:10 0.000703218
5 *185:A *183:A 5.28047e-05
6 *185:A *183:B 0.000183726
7 *185:A *190:A1 5.52238e-05
8 *190:B1 *35:29 3.17163e-05
9 *190:B1 *60:85 0
10 *29:10 *35:12 3.92854e-05
11 *29:10 *35:29 1.17968e-05
12 *29:10 *60:85 0
13 *176:B *29:10 1.33343e-05
*RES
1 *176:Y *29:10 20.6036 
2 *29:10 *185:A 17.1214 
3 *29:10 *190:B1 14.5321 
*END

*D_NET *30 0.000990479
*CONN
*I *187:A I *D sky130_fd_sc_hd__and2_1
*I *188:A I *D sky130_fd_sc_hd__nor2_1
*I *177:Y O *D sky130_fd_sc_hd__nand2_1
*CAP
1 *187:A 0.00019706
2 *188:A 0
3 *177:Y 7.49735e-05
4 *30:10 0.000272034
5 *187:A *177:A 4.37992e-05
6 *187:A *187:B 0.000238888
7 *187:A *189:A 6.05161e-06
8 *187:A *189:B 6.5185e-05
9 *30:10 *177:A 9.54798e-06
10 *30:10 *187:B 9.54798e-06
11 *30:10 *192:A3 1.28239e-05
12 *30:10 *38:10 5.7128e-05
13 *30:10 *60:74 3.43988e-06
*RES
1 *177:Y *30:10 15.0679 
2 *30:10 *188:A 13.8 
3 *30:10 *187:A 18.1214 
*END

*D_NET *31 0.00121585
*CONN
*I *183:A I *D sky130_fd_sc_hd__nor2_1
*I *190:A1 I *D sky130_fd_sc_hd__o21a_1
*I *178:X O *D sky130_fd_sc_hd__and3_1
*CAP
1 *183:A 0.000171332
2 *190:A1 2.02412e-05
3 *178:X 0.000195731
4 *31:10 0.000387304
5 *183:A *183:B 1.49871e-05
6 *183:A *185:B 0.000105163
7 *183:A *210:A 5.71472e-05
8 *31:10 *35:12 0.000127468
9 *31:10 *35:29 2.84494e-05
10 *185:A *183:A 5.28047e-05
11 *185:A *190:A1 5.52238e-05
*RES
1 *178:X *31:10 22.3714 
2 *31:10 *190:A1 9.83571 
3 *31:10 *183:A 13.4607 
*END

*D_NET *32 0.00252852
*CONN
*I *195:A1 I *D sky130_fd_sc_hd__a21oi_1
*I *182:A I *D sky130_fd_sc_hd__and3_1
*I *184:C I *D sky130_fd_sc_hd__nor3_1
*I *179:Y O *D sky130_fd_sc_hd__nand3_1
*CAP
1 *195:A1 2.22113e-05
2 *182:A 2.88432e-05
3 *184:C 0.000483882
4 *179:Y 0
5 *32:25 0.000314639
6 *32:4 0.000747467
7 *182:A *182:C 1.04232e-05
8 *184:C *55:35 6.87673e-05
9 *195:A1 *182:C 4.39965e-05
10 *195:A1 *196:A 9.80173e-05
11 *195:A1 *196:B 1.3701e-05
12 *32:25 *179:B 6.4443e-05
13 *32:25 *182:C 4.3209e-05
14 *32:25 *196:A 0.000185643
15 *32:25 *33:6 2.44318e-05
16 *32:25 *55:31 0.000365516
17 *32:25 *55:35 1.33343e-05
*RES
1 *179:Y *32:4 9.3 
2 *32:4 *184:C 25.2554 
3 *32:4 *32:25 7.01786 
4 *32:25 *182:A 10.0321 
5 *32:25 *195:A1 10.675 
*END

*D_NET *33 0.000818296
*CONN
*I *195:A2 I *D sky130_fd_sc_hd__a21oi_1
*I *182:B I *D sky130_fd_sc_hd__and3_1
*I *180:X O *D sky130_fd_sc_hd__a22o_1
*CAP
1 *195:A2 0.000182781
2 *182:B 0
3 *180:X 0.000101346
4 *33:6 0.000284128
5 *195:A2 *196:A 0.000129515
6 *195:A2 *198:A 0
7 *195:A2 *45:10 0
8 *33:6 *196:A 9.60939e-05
9 *32:25 *33:6 2.44318e-05
*RES
1 *180:X *33:6 10.6571 
2 *33:6 *182:B 9.3 
3 *33:6 *195:A2 20.6929 
*END

*D_NET *34 0.0035781
*CONN
*I *195:B1 I *D sky130_fd_sc_hd__a21oi_1
*I *182:C I *D sky130_fd_sc_hd__and3_1
*I *181:X O *D sky130_fd_sc_hd__a32o_1
*CAP
1 *195:B1 0
2 *182:C 0.000183883
3 *181:X 0.000967801
4 *34:12 0.00115168
5 *182:C *196:A 1.57296e-05
6 *182:C *196:B 2.38558e-05
7 *34:12 *164:A 0.000181796
8 *34:12 *164:B 3.30352e-05
9 *34:12 *166:C 0.000127065
10 *34:12 *198:A 0.000318107
11 *34:12 *45:10 0
12 *34:12 *46:28 0.000446777
13 *34:12 *58:55 1.84193e-07
14 *34:12 *58:64 3.05522e-05
15 *182:A *182:C 1.04232e-05
16 *195:A1 *182:C 4.39965e-05
17 *32:25 *182:C 4.3209e-05
*RES
1 *181:X *34:12 32.0857 
2 *34:12 *182:C 12.5143 
3 *34:12 *195:B1 9.3 
*END

*D_NET *35 0.00561815
*CONN
*I *196:A I *D sky130_fd_sc_hd__nor2_1
*I *192:A3 I *D sky130_fd_sc_hd__a311o_1
*I *190:A2 I *D sky130_fd_sc_hd__o21a_1
*I *183:B I *D sky130_fd_sc_hd__nor2_1
*I *182:X O *D sky130_fd_sc_hd__and3_1
*CAP
1 *196:A 0.000177262
2 *192:A3 0.000858711
3 *190:A2 0
4 *183:B 0.000367686
5 *182:X 0
6 *35:29 0.00089329
7 *35:12 0.000660367
8 *35:4 0.000435363
9 *183:B *185:B 0.000135494
10 *183:B *210:A 1.32552e-05
11 *192:A3 *189:B 0.000168514
12 *192:A3 *191:B 6.35798e-05
13 *192:A3 *192:C1 5.49544e-05
14 *192:A3 *60:60 2.97021e-05
15 *192:A3 *60:85 0.000316826
16 *196:A *196:B 0.000127648
17 *196:A *207:A 0
18 *196:A *209:A 7.45824e-05
19 *35:12 *178:A 6.72808e-05
20 *35:12 *45:10 0.000195555
21 *35:12 *55:19 2.8266e-06
22 *35:12 *60:85 0
23 *182:C *196:A 1.57296e-05
24 *183:A *183:B 1.49871e-05
25 *185:A *183:B 0.000183726
26 *190:B1 *35:29 3.17163e-05
27 *195:A1 *196:A 9.80173e-05
28 *195:A2 *196:A 0.000129515
29 *29:10 *35:12 3.92854e-05
30 *29:10 *35:29 1.17968e-05
31 *30:10 *192:A3 1.28239e-05
32 *31:10 *35:12 0.000127468
33 *31:10 *35:29 2.84494e-05
34 *32:25 *196:A 0.000185643
35 *33:6 *196:A 9.60939e-05
*RES
1 *182:X *35:4 9.3 
2 *35:4 *35:12 11.3571 
3 *35:12 *183:B 19.7286 
4 *35:12 *35:29 1.03571 
5 *35:29 *190:A2 13.8 
6 *35:29 *192:A3 29.8357 
7 *35:4 *196:A 14.8 
*END

*D_NET *36 0.000332552
*CONN
*I *185:B I *D sky130_fd_sc_hd__xnor2_1
*I *183:Y O *D sky130_fd_sc_hd__nor2_1
*CAP
1 *185:B 3.72302e-05
2 *183:Y 3.72302e-05
3 *185:B *210:A 1.74352e-05
4 *183:A *185:B 0.000105163
5 *183:B *185:B 0.000135494
*RES
1 *183:Y *185:B 20.7786 
*END

*D_NET *37 0.00105504
*CONN
*I *192:B1 I *D sky130_fd_sc_hd__a311o_1
*I *184:Y O *D sky130_fd_sc_hd__nor3_1
*CAP
1 *192:B1 0.000407043
2 *184:Y 0.000407043
3 *192:B1 *177:A 4.6025e-06
4 *192:B1 *192:C1 9.54798e-06
5 *192:B1 *38:10 0.000100158
6 *192:B1 *55:54 0.000126644
*RES
1 *184:Y *192:B1 43.3857 
*END

*D_NET *38 0.00192184
*CONN
*I *187:B I *D sky130_fd_sc_hd__and2_1
*I *188:B I *D sky130_fd_sc_hd__nor2_1
*I *186:Y O *D sky130_fd_sc_hd__a21boi_1
*CAP
1 *187:B 0.000148043
2 *188:B 3.52341e-05
3 *186:Y 0.000283854
4 *38:10 0.000467131
5 *187:B *189:B 6.8646e-06
6 *187:B *192:C1 2.88344e-05
7 *38:10 *192:C1 4.6025e-06
8 *38:10 *55:54 0
9 *175:B *38:10 0.000228514
10 *187:A *187:B 0.000238888
11 *192:B1 *38:10 0.000100158
12 *27:8 *38:10 0.000313044
13 *30:10 *187:B 9.54798e-06
14 *30:10 *38:10 5.7128e-05
*RES
1 *186:Y *38:10 21.175 
2 *38:10 *188:B 14.3357 
3 *38:10 *187:B 17.1929 
*END

*D_NET *39 0.000248145
*CONN
*I *189:A I *D sky130_fd_sc_hd__or2_1
*I *187:X O *D sky130_fd_sc_hd__and2_1
*CAP
1 *189:A 0.000121047
2 *187:X 0.000121047
3 *187:A *189:A 6.05161e-06
*RES
1 *187:X *189:A 20.3679 
*END

*D_NET *40 0.000985049
*CONN
*I *189:B I *D sky130_fd_sc_hd__or2_1
*I *192:C1 I *D sky130_fd_sc_hd__a311o_1
*I *188:Y O *D sky130_fd_sc_hd__nor2_1
*CAP
1 *189:B 0.000223179
2 *192:C1 9.51783e-05
3 *188:Y 0
4 *40:4 0.000318357
5 *192:C1 *177:A 9.83051e-06
6 *187:A *189:B 6.5185e-05
7 *187:B *189:B 6.8646e-06
8 *187:B *192:C1 2.88344e-05
9 *192:A3 *189:B 0.000168514
10 *192:A3 *192:C1 5.49544e-05
11 *192:B1 *192:C1 9.54798e-06
12 *38:10 *192:C1 4.6025e-06
*RES
1 *188:Y *40:4 9.3 
2 *40:4 *192:C1 19.8714 
3 *40:4 *189:B 22.0143 
*END

*D_NET *41 0.000708106
*CONN
*I *191:A I *D sky130_fd_sc_hd__xnor2_1
*I *189:X O *D sky130_fd_sc_hd__or2_1
*CAP
1 *191:A 0.000354053
2 *189:X 0.000354053
*RES
1 *189:X *191:A 24.475 
*END

*D_NET *42 0.000578075
*CONN
*I *191:B I *D sky130_fd_sc_hd__xnor2_1
*I *190:X O *D sky130_fd_sc_hd__o21a_1
*CAP
1 *191:B 0.000234375
2 *190:X 0.000234375
3 *191:B *60:85 4.57445e-05
4 *192:A3 *191:B 6.35798e-05
*RES
1 *190:X *191:B 32.2071 
*END

*D_NET *43 0.00210813
*CONN
*I *194:B I *D sky130_fd_sc_hd__xnor2_1
*I *193:C I *D sky130_fd_sc_hd__and3_1
*I *192:X O *D sky130_fd_sc_hd__a311o_1
*CAP
1 *194:B 0.000213382
2 *193:C 0.000105248
3 *192:X 0.000344085
4 *43:6 0.000662714
5 *193:C *170:B 4.59075e-05
6 *193:C *193:A 5.52238e-05
7 *193:C *56:6 1.43625e-06
8 *194:B *56:18 1.97381e-05
9 *194:B *60:34 2.61337e-05
10 *43:6 *193:A 7.8425e-05
11 *43:6 *60:60 0.000241017
12 *194:A *194:B 0.000314816
*RES
1 *192:X *43:6 14.3536 
2 *43:6 *193:C 10.7286 
3 *43:6 *194:B 23.2286 
*END

*D_NET *44 0.000232583
*CONN
*I *196:B I *D sky130_fd_sc_hd__nor2_1
*I *195:Y O *D sky130_fd_sc_hd__a21oi_1
*CAP
1 *196:B 3.36891e-05
2 *195:Y 3.36891e-05
3 *182:C *196:B 2.38558e-05
4 *195:A1 *196:B 1.3701e-05
5 *196:A *196:B 0.000127648
*RES
1 *195:Y *196:B 19.8902 
*END

*D_NET *45 0.00289322
*CONN
*I *198:A I *D sky130_fd_sc_hd__clkbuf_1
*I *178:C I *D sky130_fd_sc_hd__and3_1
*I *179:C I *D sky130_fd_sc_hd__nand3_1
*I *164:X O *D sky130_fd_sc_hd__and2_1
*CAP
1 *198:A 0.000344627
2 *178:C 1.28575e-05
3 *179:C 0.000359999
4 *164:X 0
5 *45:10 0.000667057
6 *45:4 0.000638828
7 *179:C *178:A 9.90431e-05
8 *179:C *178:B 9.23967e-05
9 *179:C *180:B2 3.51442e-05
10 *179:C *55:31 5.41794e-05
11 *179:C *60:85 2.78729e-05
12 *179:C *60:89 4.75521e-05
13 *45:10 *55:10 0
14 *45:10 *55:19 0
15 P[1] *198:A 0
16 *195:A2 *198:A 0
17 *195:A2 *45:10 0
18 *34:12 *198:A 0.000318107
19 *34:12 *45:10 0
20 *35:12 *45:10 0.000195555
*RES
1 *164:X *45:4 9.3 
2 *45:4 *45:10 13.9821 
3 *45:10 *179:C 25.7107 
4 *45:10 *178:C 9.49643 
5 *45:4 *198:A 24.8893 
*END

*D_NET *46 0.00271481
*CONN
*I *164:A I *D sky130_fd_sc_hd__and2_1
*I *180:B2 I *D sky130_fd_sc_hd__a22o_1
*I *166:A I *D sky130_fd_sc_hd__and3_1
*I *167:B2 I *D sky130_fd_sc_hd__a22o_1
*I *199:X O *D sky130_fd_sc_hd__buf_1
*CAP
1 *164:A 6.6228e-05
2 *180:B2 0.00010109
3 *166:A 0
4 *167:B2 0.000249608
5 *199:X 0.000125042
6 *46:28 0.000239024
7 *46:21 0.000234631
8 *46:6 0.000537574
9 *164:A *164:B 3.17016e-05
10 *164:A *58:64 7.03295e-05
11 *167:B2 *167:B1 1.8461e-05
12 *167:B2 *58:55 6.76152e-05
13 *180:B2 *180:A1 3.93986e-05
14 *180:B2 *55:10 0
15 *180:B2 *60:89 5.80706e-06
16 *46:21 *214:A 0
17 *46:21 *58:55 5.28442e-06
18 *46:28 *58:64 0.000247265
19 P[0] *167:B2 1.20377e-05
20 *179:C *180:B2 3.51442e-05
21 *34:12 *164:A 0.000181796
22 *34:12 *46:28 0.000446777
*RES
1 *199:X *46:6 11.0679 
2 *46:6 *167:B2 13.4429 
3 *46:6 *46:21 11.5536 
4 *46:21 *166:A 9.3 
5 *46:21 *46:28 4.23214 
6 *46:28 *180:B2 20.2464 
7 *46:28 *164:A 11.4964 
*END

*D_NET *47 0.000247583
*CONN
*I *207:A I *D sky130_fd_sc_hd__buf_2
*I *198:X O *D sky130_fd_sc_hd__clkbuf_1
*CAP
1 *207:A 9.49855e-05
2 *198:X 9.49855e-05
3 *207:A *209:A 5.76121e-05
4 *196:A *207:A 0
*RES
1 *198:X *207:A 20.6893 
*END

*D_NET *48 0.000453531
*CONN
*I *208:A I *D sky130_fd_sc_hd__buf_2
*I *169:X O *D sky130_fd_sc_hd__xor2_1
*CAP
1 *208:A 0.000170271
2 *169:X 0.000170271
3 *208:A *167:A2 0
4 *208:A *58:36 7.4826e-05
5 P[2] *208:A 0
6 *169:B *208:A 2.89114e-05
7 *205:A *208:A 9.25014e-06
8 *21:8 *208:A 0
*RES
1 *169:X *208:A 30.4929 
*END

*D_NET *49 0.00112641
*CONN
*I *209:A I *D sky130_fd_sc_hd__buf_2
*I *196:Y O *D sky130_fd_sc_hd__nor2_1
*CAP
1 *209:A 0.000465733
2 *196:Y 0.000465733
3 P[3] *209:A 6.27457e-05
4 *196:A *209:A 7.45824e-05
5 *207:A *209:A 5.76121e-05
*RES
1 *196:Y *209:A 35.0821 
*END

*D_NET *50 0.00111948
*CONN
*I *210:A I *D sky130_fd_sc_hd__buf_2
*I *185:Y O *D sky130_fd_sc_hd__xnor2_1
*CAP
1 *210:A 0.000509394
2 *185:Y 0.000509394
3 P[4] *210:A 1.28585e-05
4 *183:A *210:A 5.71472e-05
5 *183:B *210:A 1.32552e-05
6 *185:B *210:A 1.74352e-05
*RES
1 *185:Y *210:A 35.3857 
*END

*D_NET *51 0.00151873
*CONN
*I *211:A I *D sky130_fd_sc_hd__buf_2
*I *191:Y O *D sky130_fd_sc_hd__xnor2_1
*CAP
1 *211:A 0.000727993
2 *191:Y 0.000727993
3 P[5] *211:A 6.27457e-05
*RES
1 *191:Y *211:A 37.85 
*END

*D_NET *52 0.000680999
*CONN
*I *212:A I *D sky130_fd_sc_hd__buf_2
*I *194:Y O *D sky130_fd_sc_hd__xnor2_1
*CAP
1 *212:A 0.000310886
2 *194:Y 0.000310886
3 P[6] *212:A 5.92267e-05
*RES
1 *194:Y *212:A 32.9214 
*END

*D_NET *53 0.000848607
*CONN
*I *213:A I *D sky130_fd_sc_hd__buf_2
*I *193:X O *D sky130_fd_sc_hd__and3_1
*CAP
1 *213:A 0.000286198
2 *193:X 0.000286198
3 *213:A *56:6 0.000276211
*RES
1 *193:X *213:A 32.1357 
*END

*D_NET *54 0.00503443
*CONN
*I *166:C I *D sky130_fd_sc_hd__and3_1
*I *167:A2 I *D sky130_fd_sc_hd__a22o_1
*I *171:B I *D sky130_fd_sc_hd__nand4_1
*I *172:A1 I *D sky130_fd_sc_hd__a22o_1
*I *200:X O *D sky130_fd_sc_hd__buf_1
*CAP
1 *166:C 0.000298242
2 *167:A2 0.00016206
3 *171:B 0
4 *172:A1 0.000102319
5 *200:X 0.000537178
6 *54:36 0.000752671
7 *54:16 0.000263173
8 *54:10 0.000990401
9 *166:C *58:55 8.8628e-06
10 *167:A2 *173:A 1.02969e-05
11 *167:A2 *214:A 0
12 *167:A2 *58:36 0
13 *167:A2 *59:12 0.000147159
14 *167:A2 *59:18 2.3087e-05
15 *172:A1 *171:D 0.000105163
16 *172:A1 *172:A2 0.000186669
17 *172:A1 *58:28 2.59355e-05
18 *54:10 *57:12 2.89114e-05
19 *54:16 *172:A2 0
20 *54:16 *58:28 3.67364e-05
21 *54:16 *58:36 7.60306e-05
22 *54:16 *60:12 9.25014e-06
23 *54:36 *173:A 4.06782e-05
24 *54:36 *55:54 5.41794e-05
25 *54:36 *57:12 6.13217e-05
26 *54:36 *57:23 0.000318101
27 *54:36 *58:36 0
28 P[2] *167:A2 5.58941e-05
29 *169:A *54:10 8.25843e-06
30 *181:A3 *166:C 0.000274969
31 *181:A3 *167:A2 5.41794e-05
32 *208:A *167:A2 0
33 *20:8 *166:C 6.23493e-05
34 *21:8 *167:A2 0.000102032
35 *25:10 *172:A1 1.02936e-05
36 *25:10 *54:16 0
37 *26:10 *54:36 0.00010096
38 *34:12 *166:C 0.000127065
*RES
1 *200:X *54:10 16.1393 
2 *54:10 *54:16 11.8571 
3 *54:16 *172:A1 12.3179 
4 *54:16 *171:B 9.3 
5 *54:10 *54:36 10.9821 
6 *54:36 *167:A2 17.925 
7 *54:36 *166:C 18.8536 
*END

*D_NET *55 0.0067383
*CONN
*I *178:A I *D sky130_fd_sc_hd__and3_1
*I *179:A I *D sky130_fd_sc_hd__nand3_1
*I *181:A2 I *D sky130_fd_sc_hd__a32o_1
*I *173:B I *D sky130_fd_sc_hd__and2_1
*I *177:A I *D sky130_fd_sc_hd__nand2_1
*I *192:A1 I *D sky130_fd_sc_hd__a311o_1
*I *165:B I *D sky130_fd_sc_hd__nand2_1
*I *180:A2 I *D sky130_fd_sc_hd__a22o_1
*I *201:X O *D sky130_fd_sc_hd__clkbuf_2
*CAP
1 *178:A 0.000136173
2 *179:A 0
3 *181:A2 8.5485e-05
4 *173:B 0
5 *177:A 0.000318553
6 *192:A1 0
7 *165:B 0.000103498
8 *180:A2 0
9 *201:X 0.000313109
10 *55:54 0.000873503
11 *55:39 0.000788967
12 *55:35 0.000531
13 *55:31 0.000524035
14 *55:19 0.000379225
15 *55:10 0.000347122
16 *165:B *57:23 0.000271339
17 *177:A *60:74 0.000330469
18 *178:A *60:85 5.66647e-05
19 *178:A *60:89 4.66203e-05
20 *181:A2 *181:A1 0.000145477
21 *181:A2 *214:A 3.50885e-05
22 *55:10 *180:A1 0.00017309
23 *55:10 *60:89 5.80706e-06
24 *55:19 *60:89 2.26327e-05
25 *55:31 *179:B 3.18676e-05
26 *55:35 *214:A 5.20669e-05
27 *55:35 *57:23 1.02132e-05
28 *55:39 *57:23 6.90117e-05
29 *55:54 *173:A 4.46186e-06
30 *55:54 *58:36 0
31 *55:54 *60:74 1.94945e-05
32 *175:B *55:54 0.000123295
33 *179:C *178:A 9.90431e-05
34 *179:C *55:31 5.41794e-05
35 *180:B2 *55:10 0
36 *184:C *55:35 6.87673e-05
37 *187:A *177:A 4.37992e-05
38 *192:B1 *177:A 4.6025e-06
39 *192:B1 *55:54 0.000126644
40 *192:C1 *177:A 9.83051e-06
41 *26:10 *55:54 0
42 *26:27 *55:54 2.04825e-05
43 *30:10 *177:A 9.54798e-06
44 *32:25 *55:31 0.000365516
45 *32:25 *55:35 1.33343e-05
46 *35:12 *178:A 6.72808e-05
47 *35:12 *55:19 2.8266e-06
48 *38:10 *55:54 0
49 *45:10 *55:10 0
50 *45:10 *55:19 0
51 *54:36 *55:54 5.41794e-05
*RES
1 *201:X *55:10 19.1214 
2 *55:10 *180:A2 13.8 
3 *55:10 *55:19 0.732143 
4 *55:19 *55:31 17.7679 
5 *55:31 *55:35 6.30357 
6 *55:35 *55:39 2.19643 
7 *55:39 *165:B 11.8893 
8 *55:39 *55:54 15.4107 
9 *55:54 *192:A1 13.8 
10 *55:54 *177:A 22.484 
11 *55:39 *173:B 9.3 
12 *55:35 *181:A2 20.2464 
13 *55:31 *179:A 9.3 
14 *55:19 *178:A 17.3 
*END

*D_NET *56 0.0023046
*CONN
*I *193:B I *D sky130_fd_sc_hd__and3_1
*I *170:B I *D sky130_fd_sc_hd__nand2_1
*I *172:B1 I *D sky130_fd_sc_hd__a22o_1
*I *171:D I *D sky130_fd_sc_hd__nand4_1
*I *202:X O *D sky130_fd_sc_hd__buf_1
*CAP
1 *193:B 2.23854e-05
2 *170:B 5.67507e-05
3 *172:B1 0
4 *171:D 7.96855e-05
5 *202:X 0.000162982
6 *56:18 0.000475867
7 *56:8 0.000491174
8 *56:6 0.000223609
9 *170:B *193:A 5.52238e-05
10 *171:D *58:28 9.77274e-05
11 *56:8 *193:A 0
12 *56:18 *172:A2 3.40128e-05
13 *56:18 *58:10 9.56968e-05
14 *56:18 *58:28 5.80706e-06
15 *56:18 *60:12 0
16 *56:18 *60:34 0
17 *172:A1 *171:D 0.000105163
18 *193:C *170:B 4.59075e-05
19 *193:C *56:6 1.43625e-06
20 *194:B *56:18 1.97381e-05
21 *213:A *56:6 0.000276211
22 *25:10 *171:D 5.52238e-05
*RES
1 *202:X *56:6 13.1214 
2 *56:6 *56:8 0.732143 
3 *56:8 *56:18 16.7679 
4 *56:18 *171:D 12.3357 
5 *56:18 *172:B1 9.3 
6 *56:8 *170:B 10.6571 
7 *56:6 *193:B 9.72857 
*END

*D_NET *57 0.0023457
*CONN
*I *197:A I *D sky130_fd_sc_hd__clkbuf_1
*I *181:A1 I *D sky130_fd_sc_hd__a32o_1
*I *165:A I *D sky130_fd_sc_hd__nand2_1
*I *203:X O *D sky130_fd_sc_hd__buf_1
*CAP
1 *197:A 0
2 *181:A1 8.04211e-05
3 *165:A 0
4 *203:X 0.000209127
5 *57:23 0.000260404
6 *57:12 0.000389109
7 *181:A1 *173:A 0.000156547
8 *181:A1 *59:12 6.52971e-06
9 *57:12 *58:36 0.000113372
10 *165:B *57:23 0.000271339
11 *169:A *57:12 0.000225815
12 *181:A2 *181:A1 0.000145477
13 *54:10 *57:12 2.89114e-05
14 *54:36 *57:12 6.13217e-05
15 *54:36 *57:23 0.000318101
16 *55:35 *57:23 1.02132e-05
17 *55:39 *57:23 6.90117e-05
*RES
1 *203:X *57:12 24.1393 
2 *57:12 *165:A 9.3 
3 *57:12 *57:23 5.5 
4 *57:23 *181:A1 20.55 
5 *57:23 *197:A 9.3 
*END

*D_NET *58 0.00604056
*CONN
*I *172:B2 I *D sky130_fd_sc_hd__a22o_1
*I *171:A I *D sky130_fd_sc_hd__nand4_1
*I *164:B I *D sky130_fd_sc_hd__and2_1
*I *180:A1 I *D sky130_fd_sc_hd__a22o_1
*I *166:B I *D sky130_fd_sc_hd__and3_1
*I *167:A1 I *D sky130_fd_sc_hd__a22o_1
*I *204:X O *D sky130_fd_sc_hd__dlymetal6s2s_1
*CAP
1 *172:B2 0
2 *171:A 0
3 *164:B 8.57213e-05
4 *180:A1 9.0914e-05
5 *166:B 0
6 *167:A1 0
7 *204:X 0.000228273
8 *58:64 0.00047342
9 *58:55 0.000620596
10 *58:36 0.000900213
11 *58:28 0.000973536
12 *58:10 0.000625407
13 *58:36 *59:8 0.000213276
14 *58:55 *167:B1 2.36643e-05
15 *58:55 *214:A 0.000146945
16 *58:55 *59:8 7.20217e-06
17 P[0] *58:55 9.90431e-05
18 P[2] *58:55 0
19 *164:A *164:B 3.17016e-05
20 *164:A *58:64 7.03295e-05
21 *166:C *58:55 8.8628e-06
22 *167:A2 *58:36 0
23 *167:B2 *58:55 6.76152e-05
24 *171:D *58:28 9.77274e-05
25 *172:A1 *58:28 2.59355e-05
26 *180:B2 *180:A1 3.93986e-05
27 *181:A3 *58:36 0
28 *199:A *58:55 0
29 *203:A *58:36 0
30 *205:A *58:36 8.50152e-05
31 *208:A *58:36 7.4826e-05