*SPEF "ieee 1481-1999"
*DESIGN "SarsaNada_e10_1"
*DATE "09:58:24 Friday September 12, 2025"
*VENDOR "The OpenROAD Project"
*PROGRAM "OpenROAD"
*VERSION "edf00dff99f6c40d67a30c0e22a8191c5d2ed9d6"
*DESIGN_FLOW "NAME_SCOPE LOCAL" "PIN_CAP NONE"
*DIVIDER /
*DELIMITER :
*BUS_DELIMITER []
*T_UNIT 1 NS
*C_UNIT 1 PF
*R_UNIT 1 OHM
*L_UNIT 1 HENRY

*NAME_MAP
*1 A[0]
*2 A[1]
*3 B[0]
*4 B[1]
*5 P[0]
*6 P[1]
*7 P[2]
*8 P[3]
*11 _0_
*12 _1_
*13 _2_
*14 net1
*15 net2
*16 net3
*17 net4
*18 net5
*19 net6
*20 net7
*21 net8
*22 FILLER_0_15
*23 FILLER_0_27
*24 FILLER_0_29
*25 FILLER_0_3
*26 FILLER_0_41
*27 FILLER_0_53
*28 FILLER_0_57
*29 FILLER_0_69
*30 FILLER_1_15
*31 FILLER_1_27
*32 FILLER_1_3
*33 FILLER_1_39
*34 FILLER_1_51
*35 FILLER_1_55
*36 FILLER_1_57
*37 FILLER_1_69
*38 FILLER_2_15
*39 FILLER_2_27
*40 FILLER_2_29
*41 FILLER_2_3
*42 FILLER_2_41
*43 FILLER_2_53
*44 FILLER_2_65
*45 FILLER_2_77
*46 FILLER_3_15
*47 FILLER_3_27
*48 FILLER_3_3
*49 FILLER_3_39
*50 FILLER_3_51
*51 FILLER_3_55
*52 FILLER_3_57
*53 FILLER_3_69
*54 FILLER_4_18
*55 FILLER_4_26
*56 FILLER_4_29
*57 FILLER_4_41
*58 FILLER_4_53
*59 FILLER_4_6
*60 FILLER_4_65
*61 FILLER_4_77
*62 FILLER_5_19
*63 FILLER_5_31
*64 FILLER_5_43
*65 FILLER_5_55
*66 FILLER_5_57
*67 FILLER_5_69
*68 FILLER_5_7
*69 FILLER_6_22
*70 FILLER_6_29
*71 FILLER_6_41
*72 FILLER_6_53
*73 FILLER_6_6
*74 FILLER_6_65
*75 FILLER_6_77
*76 FILLER_7_32
*77 FILLER_7_44
*78 FILLER_7_57
*79 FILLER_7_6
*80 FILLER_7_69
*81 FILLER_8_15
*82 FILLER_8_27
*83 FILLER_8_29
*84 FILLER_8_3
*85 FILLER_8_37
*86 FILLER_8_46
*87 FILLER_8_58
*88 FILLER_8_70
*89 FILLER_8_78
*90 FILLER_9_15
*91 FILLER_9_27
*92 FILLER_9_29
*93 FILLER_9_3
*94 FILLER_9_37
*95 FILLER_9_42
*96 FILLER_9_49
*97 FILLER_9_55
*98 FILLER_9_57
*99 FILLER_9_69
*100 PHY_EDGE_ROW_0_Left_10
*101 PHY_EDGE_ROW_0_Right_0
*102 PHY_EDGE_ROW_1_Left_11
*103 PHY_EDGE_ROW_1_Right_1
*104 PHY_EDGE_ROW_2_Left_12
*105 PHY_EDGE_ROW_2_Right_2
*106 PHY_EDGE_ROW_3_Left_13
*107 PHY_EDGE_ROW_3_Right_3
*108 PHY_EDGE_ROW_4_Left_14
*109 PHY_EDGE_ROW_4_Right_4
*110 PHY_EDGE_ROW_5_Left_15
*111 PHY_EDGE_ROW_5_Right_5
*112 PHY_EDGE_ROW_6_Left_16
*113 PHY_EDGE_ROW_6_Right_6
*114 PHY_EDGE_ROW_7_Left_17
*115 PHY_EDGE_ROW_7_Right_7
*116 PHY_EDGE_ROW_8_Left_18
*117 PHY_EDGE_ROW_8_Right_8
*118 PHY_EDGE_ROW_9_Left_19
*119 PHY_EDGE_ROW_9_Right_9
*120 TAP_TAPCELL_ROW_0_20
*121 TAP_TAPCELL_ROW_0_21
*122 TAP_TAPCELL_ROW_1_22
*123 TAP_TAPCELL_ROW_2_23
*124 TAP_TAPCELL_ROW_3_24
*125 TAP_TAPCELL_ROW_4_25
*126 TAP_TAPCELL_ROW_5_26
*127 TAP_TAPCELL_ROW_6_27
*128 TAP_TAPCELL_ROW_7_28
*129 TAP_TAPCELL_ROW_8_29
*130 TAP_TAPCELL_ROW_9_30
*131 TAP_TAPCELL_ROW_9_31
*132 _3_
*133 _4_
*134 _5_
*135 _6_
*136 _7_
*137 _8_
*138 _9_
*139 input1
*140 input2
*141 input3
*142 input4
*143 output5
*144 output6
*145 output7
*146 output8

*PORTS
A[0] I
A[1] I
B[0] I
B[1] I
P[0] O
P[1] O
P[2] O
P[3] O

*D_NET *1 0.000688268
*CONN
*P A[0] I
*I *139:A I *D sky130_fd_sc_hd__buf_1
*CAP
1 A[0] 0.000329138
2 *139:A 0.000329138
3 *139:A P[0] 2.99915e-05
*RES
1 A[0] *139:A 21.6946 
*END

*D_NET *2 0.000931078
*CONN
*P A[1] I
*I *140:A I *D sky130_fd_sc_hd__buf_1
*CAP
1 A[1] 0.000465539
2 *140:A 0.000465539
3 *140:A P[2] 0
*RES
1 A[1] *140:A 23.05 
*END

*D_NET *3 0.000519961
*CONN
*P B[0] I
*I *141:A I *D sky130_fd_sc_hd__buf_1
*CAP
1 B[0] 0.000234299
2 *141:A 0.000234299
3 *141:A P[0] 2.87684e-05
4 *141:A *142:A 2.25951e-05
*RES
1 B[0] *141:A 18.73 
*END

*D_NET *4 0.000574322
*CONN
*P B[1] I
*I *142:A I *D sky130_fd_sc_hd__buf_1
*CAP
1 B[1] 0.000275863
2 *142:A 0.000275863
3 *141:A *142:A 2.25951e-05
*RES
1 B[1] *142:A 20.4803 
*END

*D_NET *5 0.000725588
*CONN
*P P[0] O
*I *143:X O *D sky130_fd_sc_hd__buf_2
*CAP
1 P[0] 0.000333414
2 *143:X 0.000333414
3 *139:A P[0] 2.99915e-05
4 *141:A P[0] 2.87684e-05
*RES
1 *143:X P[0] 20.891 
*END

*D_NET *6 0.000474378
*CONN
*P P[1] O
*I *144:X O *D sky130_fd_sc_hd__buf_2
*CAP
1 P[1] 0.000237189
2 *144:X 0.000237189
*RES
1 *144:X P[1] 18.1949 
*END

*D_NET *7 0.000951893
*CONN
*P P[2] O
*I *145:X O *D sky130_fd_sc_hd__buf_2
*CAP
1 P[2] 0.000475946
2 *145:X 0.000475946
3 P[2] P[3] 0
4 *140:A P[2] 0
*RES
1 *145:X P[2] 23.2643 
*END

*D_NET *8 0.000911701
*CONN
*P P[3] O
*I *146:X O *D sky130_fd_sc_hd__buf_2
*CAP
1 P[3] 0.00045585
2 *146:X 0.00045585
3 P[2] P[3] 0
*RES
1 *146:X P[3] 22.8536 
*END

*D_NET *11 0.000819016
*CONN
*I *137:A1 I *D sky130_fd_sc_hd__o21ba_1
*I *135:Y O *D sky130_fd_sc_hd__nor2_1
*CAP
1 *137:A1 0.000313915
2 *135:Y 0.000313915
3 *137:A1 *137:A2 4.45876e-05
4 *137:A1 *137:B1_N 3.97657e-05
5 *137:A1 *144:A 9.80173e-05
6 *137:A1 *15:20 8.81471e-06
*RES
1 *135:Y *137:A1 23.1536 
*END

*D_NET *12 0.00120499
*CONN
*I *137:A2 I *D sky130_fd_sc_hd__o21ba_1
*I *136:X O *D sky130_fd_sc_hd__a22o_1
*CAP
1 *137:A2 0.000210638
2 *136:X 0.000210638
3 *137:A2 *136:A2 3.57366e-05
4 *137:A2 *137:B1_N 0.000373084
5 *137:A2 *15:20 0.00019796
6 *137:A2 *21:8 0.000132341
7 *137:A1 *137:A2 4.45876e-05
*RES
1 *136:X *137:A2 26.1536 
*END

*D_NET *13 0.000246291
*CONN
*I *133:A1 I *D sky130_fd_sc_hd__mux2_1
*I *132:X O *D sky130_fd_sc_hd__a21bo_1
*CAP
1 *133:A1 9.43768e-05
2 *132:X 9.43768e-05
3 *133:A1 *133:A0 3.18676e-05
4 *133:A1 *133:S 2.56694e-05
*RES
1 *132:X *133:A1 29.1714 
*END

*D_NET *14 0.0030359
*CONN
*I *134:D I *D sky130_fd_sc_hd__and4_1
*I *136:B1 I *D sky130_fd_sc_hd__a22o_1
*I *132:B1_N I *D sky130_fd_sc_hd__a21bo_1
*I *133:A0 I *D sky130_fd_sc_hd__mux2_1
*I *139:X O *D sky130_fd_sc_hd__buf_1
*CAP
1 *134:D 0
2 *136:B1 5.68276e-05
3 *132:B1_N 0
4 *133:A0 0.000102121
5 *139:X 0.000577144
6 *14:38 0.000307764
7 *14:25 0.00042454
8 *14:10 0.000852868
9 *136:B1 *134:C 3.57366e-05
10 *136:B1 *136:A1 0.000126639
11 *136:B1 *136:A2 1.3701e-05
12 *136:B1 *15:22 0.000230482
13 *14:10 *133:S 3.34295e-05
14 *14:25 *133:S 0.00011891
15 *14:25 *16:21 2.72967e-05
16 *14:38 *133:S 0
17 *14:38 *136:B2 4.1331e-06
18 *14:38 *16:21 9.24395e-05
19 *133:A1 *133:A0 3.18676e-05
*RES
1 *139:X *14:10 21.2107 
2 *14:10 *133:A0 15.5679 
3 *14:10 *14:25 7.5 
4 *14:25 *132:B1_N 9.3 
5 *14:25 *14:38 13 
6 *14:38 *136:B1 12.3357 
7 *14:38 *134:D 9.3 
*END

*D_NET *15 0.00531218
*CONN
*I *138:B I *D sky130_fd_sc_hd__and3b_1
*I *135:B I *D sky130_fd_sc_hd__nor2_1
*I *136:A2 I *D sky130_fd_sc_hd__a22o_1
*I *134:C I *D sky130_fd_sc_hd__and4_1
*I *132:A2 I *D sky130_fd_sc_hd__a21bo_1
*I *140:X O *D sky130_fd_sc_hd__buf_1
*CAP
1 *138:B 0.000305469
2 *135:B 0
3 *136:A2 2.84547e-05
4 *134:C 2.76146e-05
5 *132:A2 0.000286651
6 *140:X 0.000136533
7 *15:22 0.000488163
8 *15:20 0.00101094
9 *15:12 0.000953936
10 *15:10 0.000587347
11 *132:A2 *133:S 0.000125724
12 *132:A2 *136:A1 1.00073e-05
13 *132:A2 *17:6 4.00276e-06
14 *132:A2 *17:19 4.46231e-06
15 *132:A2 *17:34 8.07397e-06
16 *134:C *136:A1 1.04232e-05
17 *136:A2 *21:8 3.18676e-05
18 *138:B *135:A 0.00012686
19 *138:B *17:49 3.13209e-06
20 *15:12 *135:A 5.51406e-05
21 *15:20 *135:A 5.80706e-06
22 *15:20 *137:B1_N 0.000492739
23 *15:20 *144:A 4.05411e-05
24 *15:20 *21:8 3.61629e-06
25 *15:22 *136:A1 3.30237e-05
26 *15:22 *21:8 9.22103e-06
27 *136:B1 *134:C 3.57366e-05
28 *136:B1 *136:A2 1.3701e-05
29 *136:B1 *15:22 0.000230482
30 *137:A1 *15:20 8.81471e-06
31 *137:A2 *136:A2 3.57366e-05
32 *137:A2 *15:20 0.00019796
*RES
1 *140:X *15:10 15.675 
2 *15:10 *15:12 2.85714 
3 *15:12 *15:20 16.3571 
4 *15:20 *15:22 3.82143 
5 *15:22 *132:A2 22.55 
6 *15:22 *134:C 10.0321 
7 *15:20 *136:A2 10.5679 
8 *15:12 *135:B 13.8 
9 *15:10 *138:B 19.2821 
*END

*D_NET *16 0.00193375
*CONN
*I *136:A1 I *D sky130_fd_sc_hd__a22o_1
*I *134:B I *D sky130_fd_sc_hd__and4_1
*I *132:A1 I *D sky130_fd_sc_hd__a21bo_1
*I *141:X O *D sky130_fd_sc_hd__buf_1
*CAP
1 *136:A1 9.34878e-05
2 *134:B 0
3 *132:A1 2.23854e-05
4 *141:X 0.00034094
5 *16:21 0.000254214
6 *16:6 0.000524051
7 *136:A1 *134:A 5.7661e-06
8 *136:A1 *17:34 0.000144773
9 *136:A1 *21:8 0.000185643
10 *16:21 *133:S 6.26559e-05
11 *132:A2 *136:A1 1.00073e-05
12 *134:C *136:A1 1.04232e-05
13 *136:B1 *136:A1 0.000126639
14 *14:25 *16:21 2.72967e-05
15 *14:38 *16:21 9.24395e-05
16 *15:22 *136:A1 3.30237e-05
*RES
1 *141:X *16:6 14.3536 
2 *16:6 *132:A1 9.72857 
3 *16:6 *16:21 12.6071 
4 *16:21 *134:B 9.3 
5 *16:21 *136:A1 13.1393 
*END

*D_NET *17 0.00503465
*CONN
*I *135:A I *D sky130_fd_sc_hd__nor2_1
*I *138:C I *D sky130_fd_sc_hd__and3b_1
*I *136:B2 I *D sky130_fd_sc_hd__a22o_1
*I *134:A I *D sky130_fd_sc_hd__and4_1
*I *133:S I *D sky130_fd_sc_hd__mux2_1
*I *142:X O *D sky130_fd_sc_hd__buf_1
*CAP
1 *135:A 0.000396379
2 *138:C 0
3 *136:B2 3.61127e-05
4 *134:A 2.03441e-05
5 *133:S 0.000253326
6 *142:X 0.000439069
7 *17:49 0.00111887
8 *17:34 0.00100018
9 *17:19 0.000305671
10 *17:6 0.000736152
11 *132:A2 *133:S 0.000125724
12 *132:A2 *17:6 4.00276e-06
13 *132:A2 *17:19 4.46231e-06
14 *132:A2 *17:34 8.07397e-06
15 *133:A1 *133:S 2.56694e-05
16 *136:A1 *134:A 5.7661e-06
17 *136:A1 *17:34 0.000144773
18 *138:B *135:A 0.00012686
19 *138:B *17:49 3.13209e-06
20 *14:10 *133:S 3.34295e-05
21 *14:25 *133:S 0.00011891
22 *14:38 *133:S 0
23 *14:38 *136:B2 4.1331e-06
24 *15:12 *135:A 5.51406e-05
25 *15:20 *135:A 5.80706e-06
26 *16:21 *133:S 6.26559e-05
*RES
1 *142:X *17:6 14.3536 
2 *17:6 *133:S 24.1929 
3 *17:6 *17:19 0.535714 
4 *17:19 *134:A 9.72857 
5 *17:19 *17:34 7.90179 
6 *17:34 *136:B2 14.6839 
7 *17:34 *17:49 12.9018 
8 *17:49 *138:C 9.3 
9 *17:49 *135:A 24.175 
*END

*D_NET *18 0.000286881
*CONN
*I *143:A I *D sky130_fd_sc_hd__buf_2
*I *133:X O *D sky130_fd_sc_hd__mux2_1
*CAP
1 *143:A 0.000143441
2 *133:X 0.000143441
*RES
1 *133:X *143:A 21.1 
*END

*D_NET *19 0.00139176
*CONN
*I *144:A I *D sky130_fd_sc_hd__buf_2
*I *137:X O *D sky130_fd_sc_hd__o21ba_1
*CAP
1 *144:A 0.000626602
2 *137:X 0.000626602
3 *137:A1 *144:A 9.80173e-05
4 *15:20 *144:A 4.05411e-05
*RES
1 *137:X *144:A 29.5464 
*END

*D_NET *20 0.000229707
*CONN
*I *145:A I *D sky130_fd_sc_hd__buf_2
*I *138:X O *D sky130_fd_sc_hd__and3b_1
*CAP
1 *145:A 0.000114854
2 *138:X 0.000114854
3 *145:A *146:A 0
*RES
1 *138:X *145:A 29.5464 
*END

*D_NET *21 0.00318091
*CONN
*I *146:A I *D sky130_fd_sc_hd__buf_2
*I *138:A_N I *D sky130_fd_sc_hd__and3b_1
*I *137:B1_N I *D sky130_fd_sc_hd__o21ba_1
*I *134:X O *D sky130_fd_sc_hd__and4_1
*CAP
1 *146:A 0.000219028
2 *138:A_N 0
3 *137:B1_N 0.00018292
4 *134:X 0.000450122
5 *21:23 0.000323274
6 *21:8 0.000737288
7 *136:A1 *21:8 0.000185643
8 *136:A2 *21:8 3.18676e-05
9 *137:A1 *137:B1_N 3.97657e-05
10 *137:A2 *137:B1_N 0.000373084
11 *137:A2 *21:8 0.000132341
12 *145:A *146:A 0
13 *15:20 *137:B1_N 0.000492739
14 *15:20 *21:8 3.61629e-06
15 *15:22 *21:8 9.22103e-06
*RES
1 *134:X *21:8 20.0857 
2 *21:8 *137:B1_N 20.5143 
3 *21:8 *21:23 1.64286 
4 *21:23 *138:A_N 13.8 
5 *21:23 *146:A 17.6036 
*END
