*SPEF "ieee 1481-1999"
*DESIGN "mult4_SarsaNada_e6_SARSA_RUIDO_e9_SarsaNStepsRuido_e9_SARSA_RUIDO_e9"
*DATE "12:05:09 Wednesday September 17, 2025"
*VENDOR "The OpenROAD Project"
*PROGRAM "OpenROAD"
*VERSION "edf00dff99f6c40d67a30c0e22a8191c5d2ed9d6"
*DESIGN_FLOW "NAME_SCOPE LOCAL" "PIN_CAP NONE"
*DIVIDER /
*DELIMITER :
*BUS_DELIMITER []
*T_UNIT 1 NS
*C_UNIT 1 PF
*R_UNIT 1 OHM
*L_UNIT 1 HENRY

*NAME_MAP
*1 A[0]
*2 A[1]
*3 A[2]
*4 A[3]
*5 B[0]
*6 B[1]
*7 B[2]
*8 B[3]
*9 P[0]
*10 P[1]
*11 P[2]
*12 P[3]
*13 P[4]
*14 P[5]
*15 P[6]
*16 P[7]
*19 _000_
*20 _001_
*21 _002_
*22 _003_
*23 _004_
*24 _005_
*25 _006_
*26 _007_
*27 _008_
*28 _009_
*29 _010_
*30 _011_
*31 _012_
*32 _013_
*33 _014_
*34 _015_
*35 _016_
*36 _017_
*37 _018_
*38 _019_
*39 _020_
*40 _021_
*41 _022_
*42 _023_
*43 _024_
*44 _025_
*45 _026_
*46 _027_
*47 _028_
*48 _029_
*49 _030_
*50 _031_
*51 _032_
*52 _033_
*53 _034_
*54 _035_
*55 _036_
*56 _037_
*57 _038_
*58 _039_
*59 _040_
*60 _041_
*61 _042_
*62 _043_
*63 _044_
*64 _045_
*65 _046_
*66 _047_
*67 _048_
*68 _049_
*69 _050_
*70 net1
*71 net10
*72 net11
*73 net12
*74 net13
*75 net14
*76 net15
*77 net16
*78 net2
*79 net3
*80 net4
*81 net5
*82 net6
*83 net7
*84 net8
*85 net9
*86 FILLER_0_15
*87 FILLER_0_29
*88 FILLER_0_3
*89 FILLER_0_37
*90 FILLER_0_62
*91 FILLER_0_74
*92 FILLER_0_80
*93 FILLER_1_3
*94 FILLER_1_34
*95 FILLER_1_46
*96 FILLER_1_54
*97 FILLER_1_64
*98 FILLER_1_76
*99 FILLER_2_13
*100 FILLER_2_25
*101 FILLER_2_34
*102 FILLER_2_38
*103 FILLER_2_46
*104 FILLER_2_60
*105 FILLER_2_67
*106 FILLER_2_80
*107 FILLER_3_21
*108 FILLER_3_27
*109 FILLER_3_3
*110 FILLER_3_47
*111 FILLER_3_55
*112 FILLER_3_62
*113 FILLER_3_74
*114 FILLER_3_80
*115 FILLER_4_12
*116 FILLER_4_24
*117 FILLER_4_29
*118 FILLER_4_40
*119 FILLER_4_48
*120 FILLER_4_62
*121 FILLER_4_70
*122 FILLER_5_24
*123 FILLER_5_32
*124 FILLER_5_36
*125 FILLER_5_48
*126 FILLER_5_57
*127 FILLER_5_69
*128 FILLER_5_9
*129 FILLER_6_25
*130 FILLER_6_65
*131 FILLER_6_80
*132 FILLER_7_15
*133 FILLER_7_27
*134 FILLER_7_3
*135 FILLER_7_39
*136 FILLER_7_44
*137 FILLER_7_57
*138 FILLER_7_69
*139 FILLER_8_19
*140 FILLER_8_3
*141 FILLER_8_36
*142 FILLER_8_62
*143 FILLER_8_68
*144 FILLER_8_7
*145 FILLER_8_76
*146 FILLER_8_80
*147 FILLER_9_15
*148 FILLER_9_23
*149 FILLER_9_29
*150 FILLER_9_3
*151 FILLER_9_41
*152 FILLER_9_53
*153 FILLER_9_67
*154 FILLER_9_75
*155 PHY_EDGE_ROW_0_Left_10
*156 PHY_EDGE_ROW_0_Right_0
*157 PHY_EDGE_ROW_1_Left_11
*158 PHY_EDGE_ROW_1_Right_1
*159 PHY_EDGE_ROW_2_Left_12
*160 PHY_EDGE_ROW_2_Right_2
*161 PHY_EDGE_ROW_3_Left_13
*162 PHY_EDGE_ROW_3_Right_3
*163 PHY_EDGE_ROW_4_Left_14
*164 PHY_EDGE_ROW_4_Right_4
*165 PHY_EDGE_ROW_5_Left_15
*166 PHY_EDGE_ROW_5_Right_5
*167 PHY_EDGE_ROW_6_Left_16
*168 PHY_EDGE_ROW_6_Right_6
*169 PHY_EDGE_ROW_7_Left_17
*170 PHY_EDGE_ROW_7_Right_7
*171 PHY_EDGE_ROW_8_Left_18
*172 PHY_EDGE_ROW_8_Right_8
*173 PHY_EDGE_ROW_9_Left_19
*174 PHY_EDGE_ROW_9_Right_9
*175 TAP_TAPCELL_ROW_0_20
*176 TAP_TAPCELL_ROW_0_21
*177 TAP_TAPCELL_ROW_1_22
*178 TAP_TAPCELL_ROW_2_23
*179 TAP_TAPCELL_ROW_3_24
*180 TAP_TAPCELL_ROW_4_25
*181 TAP_TAPCELL_ROW_5_26
*182 TAP_TAPCELL_ROW_6_27
*183 TAP_TAPCELL_ROW_7_28
*184 TAP_TAPCELL_ROW_8_29
*185 TAP_TAPCELL_ROW_9_30
*186 TAP_TAPCELL_ROW_9_31
*187 _051_
*188 _052_
*189 _053_
*190 _054_
*191 _055_
*192 _056_
*193 _057_
*194 _058_
*195 _059_
*196 _060_
*197 _061_
*198 _062_
*199 _063_
*200 _064_
*201 _065_
*202 _066_
*203 _067_
*204 _068_
*205 _069_
*206 _070_
*207 _071_
*208 _072_
*209 _073_
*210 _074_
*211 _075_
*212 _076_
*213 _077_
*214 _078_
*215 _079_
*216 _080_
*217 _081_
*218 _082_
*219 _083_
*220 _084_
*221 _085_
*222 _086_
*223 _087_
*224 _088_
*225 _089_
*226 _090_
*227 _091_
*228 _092_
*229 _093_
*230 _094_
*231 _095_
*232 _096_
*233 _097_
*234 _098_
*235 _099_
*236 _100_
*237 _101_
*238 _102_
*239 _103_
*240 _104_
*241 _105_
*242 _106_
*243 _107_
*244 _108_
*245 _109_
*246 input1
*247 input2
*248 input3
*249 input4
*250 input5
*251 input6
*252 input7
*253 input8
*254 output10
*255 output11
*256 output12
*257 output13
*258 output14
*259 output15
*260 output16
*261 output9

*PORTS
A[0] I
A[1] I
A[2] I
A[3] I
B[0] I
B[1] I
B[2] I
B[3] I
P[0] O
P[1] O
P[2] O
P[3] O
P[4] O
P[5] O
P[6] O
P[7] O

*D_NET *1 0.000786732
*CONN
*P A[0] I
*I *246:A I *D sky130_fd_sc_hd__clkbuf_2
*CAP
1 A[0] 0.000369223
2 *246:A 0.000369223
3 *246:A *247:A 0
4 *246:A *250:A 0
5 *246:A *70:6 4.82863e-05
*RES
1 A[0] *246:A 10.095 
*END

*D_NET *2 0.0011399
*CONN
*P A[1] I
*I *247:A I *D sky130_fd_sc_hd__clkbuf_2
*CAP
1 A[1] 0.000387599
2 *247:A 0.000387599
3 *247:A P[0] 0
4 *247:A *70:6 4.99619e-05
5 *247:A *70:41 0.000151541
6 *247:A *78:6 0.000163199
7 *246:A *247:A 0
*RES
1 A[1] *247:A 11.475 
*END

*D_NET *3 0.000708346
*CONN
*P A[2] I
*I *248:A I *D sky130_fd_sc_hd__buf_1
*CAP
1 A[2] 0.000237714
2 *248:A 0.000237714
3 *248:A *249:A 0.000232918
4 *248:A *251:A 0
5 *248:A *40:16 0
*RES
1 A[2] *248:A 7.3443 
*END

*D_NET *4 0.00086269
*CONN
*P A[3] I
*I *249:A I *D sky130_fd_sc_hd__buf_1
*CAP
1 A[3] 0.000288627
2 *249:A 0.000288627
3 *249:A *251:A 3.14094e-05
4 *249:A *40:16 0
5 *249:A *79:6 2.11084e-05
6 *248:A *249:A 0.000232918
*RES
1 A[3] *249:A 8.80043 
*END

*D_NET *5 0.000786235
*CONN
*P B[0] I
*I *250:A I *D sky130_fd_sc_hd__buf_1
*CAP
1 B[0] 0.000393118
2 *250:A 0.000393118
3 *246:A *250:A 0
*RES
1 B[0] *250:A 10.35 
*END

*D_NET *6 0.000687474
*CONN
*P B[1] I
*I *251:A I *D sky130_fd_sc_hd__clkbuf_2
*CAP
1 B[1] 0.000314532
2 *251:A 0.000314532
3 *251:A *253:A 2.69997e-05
4 *251:A *40:16 0
5 *248:A *251:A 0
6 *249:A *251:A 3.14094e-05
*RES
1 B[1] *251:A 7.9443 
*END

*D_NET *7 0.000876688
*CONN
*P B[2] I
*I *252:A I *D sky130_fd_sc_hd__clkbuf_2
*CAP
1 B[2] 0.000390052
2 *252:A 0.000390052
3 *252:A P[1] 0
4 *252:A *190:A 4.82919e-05
5 *252:A *70:64 4.82919e-05
6 *252:A *81:72 0
*RES
1 B[2] *252:A 10.65 
*END

*D_NET *8 0.000537959
*CONN
*P B[3] I
*I *253:A I *D sky130_fd_sc_hd__dlymetal6s2s_1
*CAP
1 B[3] 0.00025548
2 *253:A 0.00025548
3 *251:A *253:A 2.69997e-05
*RES
1 B[3] *253:A 6.8343 
*END

*D_NET *9 0.0016015
*CONN
*P P[0] O
*I *261:X O *D sky130_fd_sc_hd__buf_2
*CAP
1 P[0] 0.000632733
2 *261:X 0.000632733
3 P[0] P[1] 0
4 P[0] *192:A3 7.06865e-05
5 P[0] *194:A2 3.35635e-05
6 P[0] *78:25 0
7 P[0] *81:72 0.000231783
8 P[0] *82:28 0
9 *247:A P[0] 0
*RES
1 *261:X P[0] 14.16 
*END

*D_NET *10 0.000823689
*CONN
*P P[1] O
*I *254:X O *D sky130_fd_sc_hd__buf_2
*CAP
1 P[1] 0.00039261
2 *254:X 0.00039261
3 P[1] *194:B1 2.07333e-05
4 P[1] *78:25 9.42652e-06
5 P[1] *81:72 8.30853e-06
6 P[0] P[1] 0
7 *252:A P[1] 0
*RES
1 *254:X P[1] 10.395 
*END

*D_NET *11 0.000465449
*CONN
*P P[2] O
*I *255:X O *D sky130_fd_sc_hd__buf_2
*CAP
1 P[2] 0.000230248
2 *255:X 0.000230248
3 P[2] *197:A 4.95285e-06
*RES
1 *255:X P[2] 4.90503 
*END

*D_NET *12 0.000865561
*CONN
*P P[3] O
*I *256:X O *D sky130_fd_sc_hd__buf_2
*CAP
1 P[3] 0.000338403
2 *256:X 0.000338403
3 P[3] P[4] 9.50048e-05
4 P[3] *197:A 0
5 P[3] *256:A 3.12639e-05
6 P[3] *27:19 6.24871e-05
*RES
1 *256:X P[3] 5.70637 
*END

*D_NET *13 0.000541765
*CONN
*P P[4] O
*I *257:X O *D sky130_fd_sc_hd__buf_2
*CAP
1 P[4] 0.000206749
2 *257:X 0.000206749
3 P[4] P[5] 0
4 P[4] *257:A 3.32631e-05
5 P[3] P[4] 9.50048e-05
*RES
1 *257:X P[4] 5.41503 
*END

*D_NET *14 0.000589014
*CONN
*P P[5] O
*I *258:X O *D sky130_fd_sc_hd__buf_2
*CAP
1 P[5] 0.000294507
2 *258:X 0.000294507
3 P[5] *258:A 0
4 P[4] P[5] 0
*RES
1 *258:X P[5] 5.92503 
*END

*D_NET *15 0.00118309
*CONN
*P P[6] O
*I *259:X O *D sky130_fd_sc_hd__buf_2
*CAP
1 P[6] 0.000579168
2 *259:X 0.000579168
3 P[6] *242:A_N 3.64998e-06
4 P[6] *259:A 2.11084e-05
*RES
1 *259:X P[6] 13.035 
*END

*D_NET *16 0.000894056
*CONN
*P P[7] O
*I *260:X O *D sky130_fd_sc_hd__buf_2
*CAP
1 P[7] 0.000447028
2 *260:X 0.000447028
*RES
1 *260:X P[7] 11.55 
*END

*D_NET *19 0.00118642
*CONN
*I *206:A I *D sky130_fd_sc_hd__or4b_1
*I *192:A2 I *D sky130_fd_sc_hd__a31o_1
*I *187:Y O *D sky130_fd_sc_hd__inv_2
*CAP
1 *206:A 0.000256349
2 *192:A2 0.000161877
3 *187:Y 5.84824e-05
4 *19:8 0.000476709
5 *192:A2 *194:A2 1.70935e-05
6 *192:A2 *206:D_N 0
7 *192:A2 *207:A 0
8 *192:A2 *22:47 6.92253e-05
9 *192:A2 *78:77 0
10 *206:A *206:C 6.14024e-05
11 *206:A *207:A 0
12 *206:A *36:10 0
13 *19:8 *207:A 8.52845e-05
*RES
1 *187:Y *19:8 4.395 
2 *19:8 *192:A2 6.255 
3 *19:8 *206:A 7.47 
*END

*D_NET *20 0.000240757
*CONN
*I *213:A1 I *D sky130_fd_sc_hd__a211oi_1
*I *188:Y O *D sky130_fd_sc_hd__inv_2
*CAP
1 *213:A1 2.56807e-05
2 *188:Y 2.56807e-05
3 *213:A1 *212:B 1.61831e-05
4 *213:A1 *213:A2 4.92062e-05
5 *213:A1 *40:8 0.000124007
*RES
1 *188:Y *213:A1 4.34 
*END

*D_NET *21 0.00210284
*CONN
*I *227:A1 I *D sky130_fd_sc_hd__a211o_1
*I *225:A2 I *D sky130_fd_sc_hd__a31oi_1
*I *206:B I *D sky130_fd_sc_hd__or4b_1
*I *189:Y O *D sky130_fd_sc_hd__inv_2
*CAP
1 *227:A1 3.82847e-05
2 *225:A2 0.000221143
3 *206:B 0.000414262
4 *189:Y 0
5 *21:19 0.000367146
6 *21:6 0.00052198
7 *206:B *79:10 0
8 *206:B *83:32 3.86607e-05
9 *225:A2 *225:B1 4.59896e-06
10 *225:A2 *79:40 6.7444e-05
11 *225:A2 *79:51 5.74562e-05
12 *225:A2 *79:64 0.000113237
13 *225:A2 *80:70 2.87826e-05
14 *227:A1 *227:B1 8.53113e-06
15 *227:A1 *79:64 4.82863e-05
16 *227:A1 *80:53 0
17 *227:A1 *80:70 4.82863e-05
18 *227:A1 *83:32 2.15594e-05
19 *21:19 *79:10 0
20 *21:19 *83:32 0.000103185
*RES
1 *189:Y *21:6 3.6 
2 *21:6 *206:B 8.37 
3 *21:6 *21:19 2.145 
4 *21:19 *225:A2 6.93 
5 *21:19 *227:A1 4.665 
*END

*D_NET *22 0.00433479
*CONN
*I *214:B I *D sky130_fd_sc_hd__and3_1
*I *217:A2 I *D sky130_fd_sc_hd__a21o_1
*I *194:A2 I *D sky130_fd_sc_hd__a21oi_1
*I *192:B1 I *D sky130_fd_sc_hd__a31o_1
*I *195:A_N I *D sky130_fd_sc_hd__and3b_1
*I *190:X O *D sky130_fd_sc_hd__and3_1
*CAP
1 *214:B 0.000222994
2 *217:A2 0
3 *194:A2 0.00019422
4 *192:B1 6.33798e-05
5 *195:A_N 0
6 *190:X 8.69469e-05
7 *22:47 0.000379351
8 *22:30 0.000350577
9 *22:19 0.000244492
10 *22:10 0.000268059
11 *192:B1 *210:C 0
12 *192:B1 *81:55 1.9872e-05
13 *192:B1 *81:72 4.59354e-05
14 *192:B1 *83:22 0.000159329
15 *194:A2 *192:A3 0.000113797
16 *194:A2 *78:6 2.75229e-05
17 *194:A2 *78:25 2.93678e-05
18 *194:A2 *81:72 0
19 *194:A2 *82:47 4.80285e-05
20 *214:B *214:C 0.00011815
21 *214:B *26:10 9.25786e-05
22 *214:B *46:10 0.000213161
23 *22:10 *195:B 4.05358e-05
24 *22:10 *70:77 0
25 *22:10 *78:36 0
26 *22:10 *83:10 2.66935e-05
27 *22:19 *261:A 4.89295e-05
28 *22:19 *78:40 0.000393029
29 *22:19 *81:72 6.50656e-05
30 *22:19 *83:22 0.000291464
31 *22:19 *83:91 5.07419e-05
32 *22:47 *26:10 0.000348206
33 *22:47 *78:77 0.000272485
34 P[0] *194:A2 3.35635e-05
35 *192:A2 *194:A2 1.70935e-05
36 *192:A2 *22:47 6.92253e-05
*RES
1 *190:X *22:10 7.235 
2 *22:10 *195:A_N 1.6 
3 *22:10 *22:19 6.33 
4 *22:19 *192:B1 3.445 
5 *22:19 *22:30 2 
6 *22:30 *194:A2 7.05 
7 *22:30 *22:47 6.845 
8 *22:47 *217:A2 1.6 
9 *22:47 *214:B 6.925 
*END

*D_NET *23 0.00058471
*CONN
*I *192:A3 I *D sky130_fd_sc_hd__a31o_1
*I *191:X O *D sky130_fd_sc_hd__or2_1
*CAP
1 *192:A3 0.000138763
2 *191:X 0.000138763
3 *192:A3 *82:47 0.000122701
4 P[0] *192:A3 7.06865e-05
5 *194:A2 *192:A3 0.000113797
*RES
1 *191:X *192:A3 9.72 
*END

*D_NET *24 0.000632929
*CONN
*I *194:B1 I *D sky130_fd_sc_hd__a21oi_1
*I *193:Y O *D sky130_fd_sc_hd__a22oi_1
*CAP
1 *194:B1 0.000120681
2 *193:Y 0.000120681
3 *194:B1 *190:A 4.9253e-06
4 *194:B1 *193:A1 0
5 *194:B1 *193:B1 0
6 *194:B1 *254:A 6.0442e-05
7 *194:B1 *78:25 0.0001532
8 *194:B1 *78:36 2.48591e-05
9 *194:B1 *81:72 1.61831e-05
10 *194:B1 *82:47 0.000111225
11 P[1] *194:B1 2.07333e-05
*RES
1 *193:Y *194:B1 6.44 
*END

*D_NET *25 0.0011083
*CONN
*I *197:C I *D sky130_fd_sc_hd__and3_1
*I *198:A I *D sky130_fd_sc_hd__xnor2_1
*I *195:X O *D sky130_fd_sc_hd__and3b_1
*CAP
1 *197:C 0.000106857
2 *198:A 4.95844e-05
3 *195:X 0.000213873
4 *25:12 0.000370314
5 *197:C *27:10 3.07153e-05
6 *25:12 *198:B 0.000197269
7 *25:12 *214:A 0
8 *25:12 *26:10 4.66108e-05
9 *25:12 *70:77 9.30717e-05
*RES
1 *195:X *25:12 9.935 
2 *25:12 *198:A 2.875 
3 *25:12 *197:C 3.31 
*END

*D_NET *26 0.00377579
*CONN
*I *198:B I *D sky130_fd_sc_hd__xnor2_1
*I *206:D_N I *D sky130_fd_sc_hd__or4b_1
*I *200:C I *D sky130_fd_sc_hd__and3_1
*I *196:Y O *D sky130_fd_sc_hd__nand2_1
*CAP
1 *198:B 0.000193272
2 *206:D_N 0.000239737
3 *200:C 1.8143e-05
4 *196:Y 0
5 *26:10 0.000951474
6 *26:4 0.000886866
7 *198:B *196:B 1.52837e-05
8 *198:B *197:B 0
9 *200:C *200:A 3.49632e-05
10 *206:D_N *201:A 3.05373e-05
11 *206:D_N *78:92 2.84864e-05
12 *206:D_N *82:28 3.74736e-05
13 *206:D_N *82:78 5.69053e-05
14 *206:D_N *84:62 5.21545e-05
15 *26:10 *200:A 4.66108e-05
16 *26:10 *214:C 0.00019939
17 *26:10 *217:A1 0.0001249
18 *26:10 *78:77 0.000100519
19 *26:10 *78:79 7.44125e-05
20 *192:A2 *206:D_N 0
21 *214:B *26:10 9.25786e-05
22 *22:47 *26:10 0.000348206
23 *25:12 *198:B 0.000197269
24 *25:12 *26:10 4.66108e-05
*RES
1 *196:Y *26:4 1.6 
2 *26:4 *26:10 11.61 
3 *26:10 *200:C 1.93 
4 *26:10 *206:D_N 9.785 
5 *26:4 *198:B 8.3 
*END

*D_NET *27 0.0016394
*CONN
*I *235:A1 I *D sky130_fd_sc_hd__a31o_1
*I *223:A I *D sky130_fd_sc_hd__nand2_1
*I *244:A I *D sky130_fd_sc_hd__or2_1
*I *197:X O *D sky130_fd_sc_hd__and3_1
*CAP
1 *235:A1 0.000198729
2 *223:A 3.37585e-05
3 *244:A 0
4 *197:X 0.000252466
5 *27:19 0.000316675
6 *27:10 0.000336653
7 *235:A1 *220:B 0
8 *235:A1 *224:A 0.00012276
9 *235:A1 *224:B 7.34364e-05
10 *235:A1 *256:A 2.97004e-06
11 *235:A1 *257:A 0
12 *235:A1 *50:14 3.54536e-05
13 *27:10 *51:10 1.22762e-05
14 *27:19 *224:B 4.58406e-05
15 *27:19 *245:A 6.55406e-05
16 *27:19 *256:A 3.34967e-05
17 *27:19 *51:10 1.61461e-05
18 P[3] *27:19 6.24871e-05
19 *197:C *27:10 3.07153e-05
*RES
1 *197:X *27:10 7.56 
2 *27:10 *244:A 3.6 
3 *27:10 *27:19 2.655 
4 *27:19 *223:A 4.05 
5 *27:19 *235:A1 7.425 
*END

*D_NET *28 0.00152571
*CONN
*I *209:A I *D sky130_fd_sc_hd__xor2_1
*I *208:A I *D sky130_fd_sc_hd__or2_1
*I *237:C I *D sky130_fd_sc_hd__and3_1
*I *199:Y O *D sky130_fd_sc_hd__nand2_1
*CAP
1 *209:A 0
2 *208:A 0.000221452
3 *237:C 0
4 *199:Y 6.57235e-05
5 *28:23 0.000350922
6 *28:12 0.000195193
7 *208:A *208:B 7.57202e-05
8 *208:A *209:B 0.000116516
9 *208:A *237:A 1.20052e-05
10 *208:A *38:6 3.52139e-06
11 *208:A *38:10 3.00381e-05
12 *28:12 *199:A 9.03081e-05
13 *28:12 *237:A 0.000108218
14 *28:12 *237:B 9.16354e-05
15 *28:12 *84:79 7.01303e-05
16 *28:23 *237:A 8.05074e-05
17 *28:23 *237:B 1.38227e-05
*RES
1 *199:Y *28:12 7.745 
2 *28:12 *237:C 1.6 
3 *28:12 *28:23 2.415 
4 *28:23 *208:A 5.095 
5 *28:23 *209:A 1.6 
*END

*D_NET *29 0.000961556
*CONN
*I *207:A I *D sky130_fd_sc_hd__xor2_1
*I *200:X O *D sky130_fd_sc_hd__and3_1
*CAP
1 *207:A 0.000277628
2 *200:X 0.000277628
3 *207:A *200:A 5.83121e-06
4 *207:A *78:77 0.000273026
5 *207:A *78:79 4.21579e-05
6 *192:A2 *207:A 0
7 *206:A *207:A 0
8 *19:8 *207:A 8.52845e-05
*RES
1 *200:X *207:A 12.3 
*END

*D_NET *30 0.000398944
*CONN
*I *205:A0 I *D sky130_fd_sc_hd__mux2_1
*I *201:Y O *D sky130_fd_sc_hd__nand2_1
*CAP
1 *205:A0 0.000143045
2 *201:Y 0.000143045
3 *205:A0 *205:A1 2.23542e-05
4 *205:A0 *205:S 8.65905e-05
5 *205:A0 *45:12 3.90873e-06
*RES
1 *201:Y *205:A0 5.03 
*END

*D_NET *31 0.000994889
*CONN
*I *216:A1 I *D sky130_fd_sc_hd__a21oi_1
*I *202:Y O *D sky130_fd_sc_hd__nand2_1
*CAP
1 *216:A1 0.000273957
2 *202:Y 0.000273957
3 *216:A1 *202:A 4.66108e-05
4 *216:A1 *202:B 0.000105488
5 *216:A1 *203:A 9.79935e-05
6 *216:A1 *203:C 9.16333e-06
7 *216:A1 *215:B1 0.000122325
8 *216:A1 *216:A2 6.53954e-05
*RES
1 *202:Y *216:A1 8.63 
*END

*D_NET *32 0.00189176
*CONN
*I *205:S I *D sky130_fd_sc_hd__mux2_1
*I *216:B1 I *D sky130_fd_sc_hd__a21oi_1
*I *204:B I *D sky130_fd_sc_hd__and2_1
*I *203:X O *D sky130_fd_sc_hd__and3_1
*CAP
1 *205:S 0.000260375
2 *216:B1 0
3 *204:B 0.000100338
4 *203:X 4.29483e-05
5 *32:27 0.000618685
6 *32:10 0.000501596
7 *204:B *33:12 2.11084e-05
8 *205:S *201:B 0.000130209
9 *205:S *205:A1 3.69647e-05
10 *205:S *45:12 1.6408e-05
11 *32:10 *80:10 7.23533e-05
12 *32:10 *82:14 4.18603e-06
13 *32:27 *215:B1 0
14 *32:27 *83:32 0
15 *205:A0 *205:S 8.65905e-05
*RES
1 *203:X *32:10 6.47 
2 *32:10 *204:B 3.355 
3 *32:10 *32:27 7.99 
4 *32:27 *216:B1 1.6 
5 *32:27 *205:S 6.46 
*END

*D_NET *33 0.000905239
*CONN
*I *228:A I *D sky130_fd_sc_hd__nand2_1
*I *229:A I *D sky130_fd_sc_hd__xnor2_1
*I *204:X O *D sky130_fd_sc_hd__and2_1
*CAP
1 *228:A 0
2 *229:A 9.34464e-05
3 *204:X 0.000151304
4 *33:12 0.00024475
5 *229:A *228:B 0.000112349
6 *229:A *229:B 4.82863e-05
7 *33:12 *40:16 0.000119512
8 *33:12 *80:10 3.47837e-05
9 *33:12 *80:53 7.96996e-05
10 *204:B *33:12 2.11084e-05
*RES
1 *204:X *33:12 9.47 
2 *33:12 *229:A 3.43 
3 *33:12 *228:A 1.6 
*END

*D_NET *34 0.000631798
*CONN
*I *207:B I *D sky130_fd_sc_hd__xor2_1
*I *206:C I *D sky130_fd_sc_hd__or4b_1
*I *205:X O *D sky130_fd_sc_hd__mux2_1
*CAP
1 *207:B 8.1801e-05
2 *206:C 0.000171933
3 *205:X 0
4 *34:4 0.000253734
5 *206:C *45:12 1.15585e-05
6 *206:C *84:62 0
7 *207:B *45:12 5.13692e-05
8 *206:A *206:C 6.14024e-05
*RES
1 *205:X *34:4 1.6 
2 *34:4 *206:C 8.12 
3 *34:4 *207:B 3.265 
*END

*D_NET *35 0.00159267
*CONN
*I *231:A I *D sky130_fd_sc_hd__and3_1
*I *232:A I *D sky130_fd_sc_hd__nand3_1
*I *233:A1 I *D sky130_fd_sc_hd__a21oi_1
*I *206:X O *D sky130_fd_sc_hd__or4b_1
*CAP
1 *231:A 3.43436e-05
2 *232:A 0
3 *233:A1 2.82736e-05
4 *206:X 0.000383022
5 *35:23 0.000122129
6 *35:8 0.000499081
7 *231:A *231:C 2.64607e-05
8 *231:A *58:15 5.83121e-06
9 *231:A *66:6 4.89295e-05
10 *233:A1 *233:B1 4.89295e-05
11 *233:A1 *37:12 4.89295e-05
12 *233:A1 *37:18 4.77757e-05
13 *35:8 *199:A 5.74228e-05
14 *35:8 *227:C1 0
15 *35:8 *241:A1 0
16 *35:8 *36:10 0
17 *35:8 *37:18 3.09233e-05
18 *35:8 *61:10 0
19 *35:8 *64:12 0
20 *35:8 *84:62 0
21 *35:23 *231:B 8.53113e-06
22 *35:23 *233:B1 7.23533e-05
23 *35:23 *241:B1 0
24 *35:23 *37:18 0.000129735
25 *35:23 *61:10 0
*RES
1 *206:X *35:8 9.57 
2 *35:8 *233:A1 4.395 
3 *35:8 *35:23 4.085 
4 *35:23 *232:A 1.6 
5 *35:23 *231:A 2.41 
*END

*D_NET *36 0.00112083
*CONN
*I *208:B I *D sky130_fd_sc_hd__or2_1
*I *209:B I *D sky130_fd_sc_hd__xor2_1
*I *207:X O *D sky130_fd_sc_hd__xor2_1
*CAP
1 *208:B 2.3569e-05
2 *209:B 6.23419e-05
3 *207:X 0.000369691
4 *36:10 0.000455602
5 *208:B *38:6 1.7386e-05
6 *36:10 *219:B1 0
7 *36:10 *45:12 0
8 *36:10 *48:10 0
9 *206:A *36:10 0
10 *208:A *208:B 7.57202e-05
11 *208:A *209:B 0.000116516
12 *35:8 *36:10 0
*RES
1 *207:X *36:10 11.57 
2 *36:10 *209:B 3.01 
3 *36:10 *208:B 2.395 
*END

*D_NET *37 0.00237971
*CONN
*I *233:A2 I *D sky130_fd_sc_hd__a21oi_1
*I *231:B I *D sky130_fd_sc_hd__and3_1
*I *232:B I *D sky130_fd_sc_hd__nand3_1
*I *208:X O *D sky130_fd_sc_hd__or2_1
*CAP
1 *233:A2 0
2 *231:B 0.000185585
3 *232:B 1.65033e-05
4 *208:X 0.000171485
5 *37:18 0.000324823
6 *37:12 0.00029422
7 *231:B *60:12 0.000123955
8 *231:B *66:6 4.31857e-05
9 *232:B *58:15 2.49909e-05
10 *232:B *66:6 4.66108e-05
11 *37:12 *233:B1 4.40028e-05
12 *37:12 *241:A1 5.21627e-05
13 *37:12 *241:A2 0.000139238
14 *37:12 *243:B1 0.000448616
15 *37:12 *61:18 0.000113255
16 *37:18 *243:B1 8.51862e-05
17 *37:18 *64:12 0
18 *233:A1 *37:12 4.89295e-05
19 *233:A1 *37:18 4.77757e-05
20 *35:8 *37:18 3.09233e-05
21 *35:23 *231:B 8.53113e-06
22 *35:23 *37:18 0.000129735
*RES
1 *208:X *37:12 11.48 
2 *37:12 *37:18 4.685 
3 *37:18 *232:B 4.05 
4 *37:18 *231:B 6.3 
5 *37:12 *233:A2 1.6 
*END

*D_NET *38 0.00140812
*CONN
*I *241:A1 I *D sky130_fd_sc_hd__a311o_1
*I *220:A I *D sky130_fd_sc_hd__and2_1
*I *221:A I *D sky130_fd_sc_hd__xor2_1
*I *209:X O *D sky130_fd_sc_hd__xor2_1
*CAP
1 *241:A1 0.000163059
2 *220:A 5.08024e-05
3 *221:A 0
4 *209:X 6.13511e-05
5 *38:10 0.000225285
6 *38:6 0.000398892
7 *220:A *220:B 0.000191521
8 *220:A *240:A1 1.61831e-05
9 *220:A *50:14 4.99619e-05
10 *241:A1 *241:A2 0
11 *241:A1 *241:B1 4.94404e-05
12 *241:A1 *61:10 5.02217e-05
13 *38:10 *220:B 4.82919e-05
14 *208:A *38:6 3.52139e-06
15 *208:A *38:10 3.00381e-05
16 *208:B *38:6 1.7386e-05
17 *35:8 *241:A1 0
18 *37:12 *241:A1 5.21627e-05
*RES
1 *209:X *38:6 2.395 
2 *38:6 *38:10 3.045 
3 *38:10 *221:A 1.6 
4 *38:10 *220:A 3.43 
5 *38:6 *241:A1 8.765 
*END

*D_NET *39 0.000817689
*CONN
*I *213:A2 I *D sky130_fd_sc_hd__a211oi_1
*I *210:Y O *D sky130_fd_sc_hd__nand3b_1
*CAP
1 *213:A2 0.000159725
2 *210:Y 0.000159725
3 *213:A2 *211:A 3.00381e-05
4 *213:A2 *212:B 0.000122331
5 *213:A2 *40:8 1.38057e-05
6 *213:A2 *70:14 3.66286e-05
7 *213:A2 *70:16 0.000201508
8 *213:A2 *83:26 4.47209e-05
9 *213:A1 *213:A2 4.92062e-05
*RES
1 *210:Y *213:A2 7.46 
*END

*D_NET *40 0.00304225
*CONN
*I *213:B1 I *D sky130_fd_sc_hd__a211oi_1
*I *228:B I *D sky130_fd_sc_hd__nand2_1
*I *229:B I *D sky130_fd_sc_hd__xnor2_1
*I *211:X O *D sky130_fd_sc_hd__and4_1
*CAP
1 *213:B1 0
2 *228:B 9.94416e-05
3 *229:B 2.22788e-05
4 *211:X 0.000220666
5 *40:16 0.000741001
6 *40:8 0.000839946
7 *228:B *57:12 3.00381e-05
8 *228:B *80:70 3.26889e-05
9 *40:8 *212:B 2.26018e-05
10 *40:8 *70:16 2.75229e-05
11 *40:16 *212:A_N 0.000164679
12 *40:16 *212:B 4.60584e-05
13 *40:16 *213:C1 8.8266e-05
14 *40:16 *42:18 0
15 *40:16 *80:10 0
16 *40:16 *81:20 0.000139238
17 *40:16 *82:14 0.000136429
18 *40:16 *82:22 1.34361e-05
19 *213:A1 *40:8 0.000124007
20 *213:A2 *40:8 1.38057e-05
21 *229:A *228:B 0.000112349
22 *229:A *229:B 4.82863e-05
23 *248:A *40:16 0
24 *249:A *40:16 0
25 *251:A *40:16 0
26 *33:12 *40:16 0.000119512
*RES
1 *211:X *40:8 4.735 
2 *40:8 *40:16 16.825 
3 *40:16 *229:B 2.05 
4 *40:16 *228:B 3.79 
5 *40:8 *213:B1 1.6 
*END

*D_NET *41 0.000197062
*CONN
*I *213:C1 I *D sky130_fd_sc_hd__a211oi_1
*I *212:X O *D sky130_fd_sc_hd__and2b_1
*CAP
1 *213:C1 1.02651e-05
2 *212:X 1.02651e-05
3 *213:C1 *212:B 8.8266e-05
4 *40:16 *213:C1 8.8266e-05
*RES
1 *212:X *213:C1 3.995 
*END

*D_NET *42 0.00398161
*CONN
*I *217:B1 I *D sky130_fd_sc_hd__a21o_1
*I *214:C I *D sky130_fd_sc_hd__and3_1
*I *213:Y O *D sky130_fd_sc_hd__a211oi_1
*CAP
1 *217:B1 0
2 *214:C 4.34701e-05
3 *213:Y 0.00178857
4 *42:18 0.00183204
5 *42:18 *70:55 0
6 *42:18 *78:77 0
7 *42:18 *81:10 0
8 *214:B *214:C 0.00011815
9 *26:10 *214:C 0.00019939
10 *40:16 *42:18 0
*RES
1 *213:Y *42:18 11.4737 
2 *42:18 *214:C 3.67 
3 *42:18 *217:B1 1.6 
*END

*D_NET *43 0.000809493
*CONN
*I *218:A_N I *D sky130_fd_sc_hd__nand2b_1
*I *219:B1 I *D sky130_fd_sc_hd__a21o_1
*I *214:X O *D sky130_fd_sc_hd__and3_1
*CAP
1 *218:A_N 5.23473e-05
2 *219:B1 0.000188452
3 *214:X 6.42481e-05
4 *43:10 0.000305047
5 *219:B1 *219:A2 0
6 *219:B1 *45:12 0.000100099
7 *43:10 *45:12 4.20983e-05
8 *43:10 *46:10 5.72004e-05
9 *36:10 *219:B1 0
*RES
1 *214:X *43:10 7.235 
2 *43:10 *219:B1 8.975 
3 *43:10 *218:A_N 2.395 
*END

*D_NET *44 0.000620288
*CONN
*I *216:A2 I *D sky130_fd_sc_hd__a21oi_1
*I *215:Y O *D sky130_fd_sc_hd__o21ai_1
*CAP
1 *216:A2 0.000109983
2 *215:Y 0.000109983
3 *216:A2 *201:B 0.000131986
4 *216:A2 *203:A 3.06427e-05
5 *216:A2 *215:B1 0.000124007
6 *216:A2 *80:31 4.82919e-05
7 *216:A1 *216:A2 6.53954e-05
*RES
1 *215:Y *216:A2 6.335 
*END

*D_NET *45 0.00315553
*CONN
*I *222:A I *D sky130_fd_sc_hd__xnor2_1
*I *219:A1 I *D sky130_fd_sc_hd__a21o_1
*I *216:Y O *D sky130_fd_sc_hd__a21oi_1
*CAP
1 *222:A 0.000128332
2 *219:A1 0
3 *216:Y 0.00102774
4 *45:12 0.00115607
5 *222:A *219:A2 8.65905e-05
6 *222:A *48:10 1.33293e-05
7 *45:12 *201:B 0.000315527
8 *45:12 *205:A1 0.000159064
9 *45:12 *219:A2 4.34365e-05
10 *205:A0 *45:12 3.90873e-06
11 *205:S *45:12 1.6408e-05
12 *206:C *45:12 1.15585e-05
13 *207:B *45:12 5.13692e-05
14 *219:B1 *45:12 0.000100099
15 *36:10 *45:12 0
16 *43:10 *45:12 4.20983e-05
*RES
1 *216:Y *45:12 19.235 
2 *45:12 *219:A1 1.6 
3 *45:12 *222:A 3.805 
*END

*D_NET *46 0.00113237
*CONN
*I *219:A2 I *D sky130_fd_sc_hd__a21o_1
*I *218:B I *D sky130_fd_sc_hd__nand2b_1
*I *217:X O *D sky130_fd_sc_hd__a21o_1
*CAP
1 *219:A2 0.00016586
2 *218:B 6.77706e-06
3 *217:X 0.000156432
4 *46:10 0.000329069
5 *218:B *222:B 6.03947e-06
6 *219:A2 *222:B 6.28765e-05
7 *219:A2 *48:10 4.9253e-06
8 *214:B *46:10 0.000213161
9 *219:B1 *219:A2 0
10 *222:A *219:A2 8.65905e-05
11 *43:10 *46:10 5.72004e-05
12 *45:12 *219:A2 4.34365e-05
*RES
1 *217:X *46:10 6.975 
2 *46:10 *218:B 3.70875 
3 *46:10 *219:A2 7.185 
*END

*D_NET *47 0.000464319
*CONN
*I *222:B I *D sky130_fd_sc_hd__xnor2_1
*I *218:Y O *D sky130_fd_sc_hd__nand2b_1
*CAP
1 *222:B 0.000197701
2 *218:Y 0.000197701
3 *218:B *222:B 6.03947e-06
4 *219:A2 *222:B 6.28765e-05
*RES
1 *218:Y *222:B 9.975 
*END

*D_NET *48 0.00232041
*CONN
*I *221:B I *D sky130_fd_sc_hd__xor2_1
*I *241:A2 I *D sky130_fd_sc_hd__a311o_1
*I *220:B I *D sky130_fd_sc_hd__and2_1
*I *219:X O *D sky130_fd_sc_hd__a21o_1
*CAP
1 *221:B 0
2 *241:A2 0.000253036
3 *220:B 0.000164084
4 *219:X 0.000364439
5 *48:23 0.000287974
6 *48:10 0.000563461
7 *220:B *50:14 5.55927e-05
8 *241:A2 *234:A 0.000124895
9 *241:A2 *240:A1 0
10 *241:A2 *240:B1 2.30292e-05
11 *241:A2 *240:C1 8.65905e-05
12 *219:A2 *48:10 4.9253e-06
13 *220:A *220:B 0.000191521
14 *222:A *48:10 1.33293e-05
15 *235:A1 *220:B 0
16 *241:A1 *241:A2 0
17 *36:10 *48:10 0
18 *37:12 *241:A2 0.000139238
19 *38:10 *220:B 4.82919e-05
*RES
1 *219:X *48:10 8.595 
2 *48:10 *220:B 6.825 
3 *48:10 *48:23 0.615 
4 *48:23 *241:A2 8.865 
5 *48:23 *221:B 3.6 
*END

*D_NET *49 0.00132756
*CONN
*I *235:B1 I *D sky130_fd_sc_hd__a31o_1
*I *240:A1 I *D sky130_fd_sc_hd__o211a_1
*I *220:X O *D sky130_fd_sc_hd__and2_1
*CAP
1 *235:B1 0.000141618
2 *240:A1 0.000329865
3 *220:X 0
4 *49:4 0.000471482
5 *235:B1 *224:B 0
6 *235:B1 *235:A3 4.18603e-06
7 *235:B1 *50:14 5.49555e-05
8 *240:A1 *240:A2 5.16418e-05
9 *240:A1 *242:A_N 1.65192e-05
10 *240:A1 *243:B1 5.51158e-05
11 *240:A1 *50:14 0.000115309
12 *240:A1 *61:18 7.06865e-05
13 *220:A *240:A1 1.61831e-05
14 *241:A2 *240:A1 0
*RES
1 *220:X *49:4 1.6 
2 *49:4 *240:A1 11.195 
3 *49:4 *235:B1 7.61 
*END

*D_NET *50 0.0010647
*CONN
*I *224:A I *D sky130_fd_sc_hd__xnor2_1
*I *235:A2 I *D sky130_fd_sc_hd__a31o_1
*I *221:X O *D sky130_fd_sc_hd__xor2_1
*CAP
1 *224:A 0.00011428
2 *235:A2 0
3 *221:X 0.000156919
4 *50:14 0.000271199
5 *224:A *224:B 8.8266e-05
6 *220:A *50:14 4.99619e-05
7 *220:B *50:14 5.55927e-05
8 *235:A1 *224:A 0.00012276
9 *235:A1 *50:14 3.54536e-05
10 *235:B1 *50:14 5.49555e-05
11 *240:A1 *50:14 0.000115309
*RES
1 *221:X *50:14 6.085 
2 *50:14 *235:A2 1.6 
3 *50:14 *224:A 4.24 
*END

*D_NET *51 0.0015061
*CONN
*I *244:B I *D sky130_fd_sc_hd__or2_1
*I *235:A3 I *D sky130_fd_sc_hd__a31o_1
*I *223:B I *D sky130_fd_sc_hd__nand2_1
*I *222:Y O *D sky130_fd_sc_hd__xnor2_1
*CAP
1 *244:B 5.56478e-05
2 *235:A3 7.97055e-05
3 *223:B 0
4 *222:Y 0.000294034
5 *51:10 0.000207892
6 *51:6 0.000477868
7 *235:A3 *224:B 0.000163992
8 *244:B *245:A 4.9253e-06
9 *51:10 *224:B 6.92392e-05
10 *51:10 *245:A 0.000120186
11 *235:B1 *235:A3 4.18603e-06
12 *27:10 *51:10 1.22762e-05
13 *27:19 *51:10 1.61461e-05
*RES
1 *222:Y *51:6 4.81 
2 *51:6 *51:10 4.91 
3 *51:10 *223:B 3.6 
4 *51:10 *235:A3 5.49 
5 *51:6 *244:B 2.41 
*END

*D_NET *52 0.00150976
*CONN
*I *224:B I *D sky130_fd_sc_hd__xnor2_1
*I *245:A I *D sky130_fd_sc_hd__and2_1
*I *223:Y O *D sky130_fd_sc_hd__nand2_1
*CAP
1 *224:B 0.00015206
2 *245:A 0.000223823
3 *223:Y 0
4 *52:6 0.000375884
5 *245:A *245:B 0.00012657
6 *224:A *224:B 8.8266e-05
7 *235:A1 *224:B 7.34364e-05
8 *235:A3 *224:B 0.000163992
9 *235:B1 *224:B 0
10 *244:B *245:A 4.9253e-06
11 *27:19 *224:B 4.58406e-05
12 *27:19 *245:A 6.55406e-05
13 *51:10 *224:B 6.92392e-05
14 *51:10 *245:A 0.000120186
*RES
1 *223:Y *52:6 3.6 
2 *52:6 *245:A 8.19 
3 *52:6 *224:B 7.755 
*END

*D_NET *53 0.000656634
*CONN
*I *227:B1 I *D sky130_fd_sc_hd__a211o_1
*I *225:Y O *D sky130_fd_sc_hd__a31oi_1
*CAP
1 *227:B1 7.38671e-05
2 *225:Y 7.38671e-05
3 *227:B1 *225:A1 0.000161529
4 *227:B1 *55:12 4.99619e-05
5 *227:B1 *80:70 0.000237243
6 *227:B1 *83:32 5.16348e-05
7 *227:A1 *227:B1 8.53113e-06
*RES
1 *225:Y *227:B1 9.99 
*END

*D_NET *54 0.00130877
*CONN
*I *243:C1 I *D sky130_fd_sc_hd__a211o_1
*I *227:C1 I *D sky130_fd_sc_hd__a211o_1
*I *226:X O *D sky130_fd_sc_hd__and4_1
*CAP
1 *243:C1 0.000144352
2 *227:C1 0.000104314
3 *226:X 0
4 *54:6 0.000248666
5 *227:C1 *64:12 5.53249e-06
6 *227:C1 *79:64 0.000201508
7 *227:C1 *80:70 0.000199833
8 *227:C1 *83:32 0
9 *243:C1 *239:B 8.65905e-05
10 *243:C1 *243:A1 8.65905e-05
11 *243:C1 *243:B1 7.1635e-05
12 *243:C1 *64:12 0.000159747
13 *35:8 *227:C1 0
*RES
1 *226:X *54:6 3.6 
2 *54:6 *227:C1 6.3 
3 *54:6 *243:C1 7.815 
*END

*D_NET *55 0.00132111
*CONN
*I *230:A I *D sky130_fd_sc_hd__xnor2_1
*I *238:A1 I *D sky130_fd_sc_hd__o21ai_1
*I *227:X O *D sky130_fd_sc_hd__a211o_1
*CAP
1 *230:A 0
2 *238:A1 0.000125934
3 *227:X 0.000267935
4 *55:12 0.000393869
5 *238:A1 *230:B 0.000136391
6 *238:A1 *65:10 0.000123225
7 *55:12 *238:B1 0.000119512
8 *55:12 *80:70 0.000104286
9 *227:B1 *55:12 4.99619e-05
*RES
1 *227:X *55:12 10.505 
2 *55:12 *238:A1 4.6 
3 *55:12 *230:A 1.6 
*END

*D_NET *56 0.000529852
*CONN
*I *238:B1 I *D sky130_fd_sc_hd__o21ai_1
*I *228:Y O *D sky130_fd_sc_hd__nand2_1
*CAP
1 *238:B1 0.000122636
2 *228:Y 0.000122636
3 *238:B1 *57:12 0.000165068
4 *55:12 *238:B1 0.000119512
*RES
1 *228:Y *238:B1 10.875 
*END

*D_NET *57 0.000948563
*CONN
*I *230:B I *D sky130_fd_sc_hd__xnor2_1
*I *238:A2 I *D sky130_fd_sc_hd__o21ai_1
*I *229:Y O *D sky130_fd_sc_hd__xnor2_1
*CAP
1 *230:B 0.000113693
2 *238:A2 0
3 *229:Y 0.00019484
4 *57:12 0.000308533
5 *228:B *57:12 3.00381e-05
6 *238:A1 *230:B 0.000136391
7 *238:B1 *57:12 0.000165068
*RES
1 *229:Y *57:12 9.47 
2 *57:12 *238:A2 1.6 
3 *57:12 *230:B 4.375 
*END

*D_NET *58 0.00244959
*CONN
*I *231:C I *D sky130_fd_sc_hd__and3_1
*I *233:B1 I *D sky130_fd_sc_hd__a21oi_1
*I *232:C I *D sky130_fd_sc_hd__nand3_1
*I *230:Y O *D sky130_fd_sc_hd__xnor2_1
*CAP
1 *231:C 9.24771e-05
2 *233:B1 0.000149326
3 *232:C 2.09559e-05
4 *230:Y 0.000510407
5 *58:15 0.000334584
6 *58:6 0.000624145
7 *231:C *66:6 3.1173e-05
8 *232:C *243:A1 0
9 *58:6 *239:B 1.12578e-05
10 *58:6 *243:A1 0.000272984
11 *58:6 *65:10 0.000122155
12 *58:6 *66:6 3.51072e-05
13 *58:15 *66:6 2.24523e-05
14 *231:A *231:C 2.64607e-05
15 *231:A *58:15 5.83121e-06
16 *232:B *58:15 2.49909e-05
17 *233:A1 *233:B1 4.89295e-05
18 *35:23 *233:B1 7.23533e-05
19 *37:12 *233:B1 4.40028e-05
*RES
1 *230:Y *58:6 8.26 
2 *58:6 *232:C 1.96 