*SPEF "ieee 1481-1999"
*DESIGN "mult4_SarsaNStepsRuido_e9_SARSA_RUIDO_e9_SARSA_RUIDO_e9_SARSA_RUIDO_e9"
*DATE "14:33:08 Tuesday September 16, 2025"
*VENDOR "The OpenROAD Project"
*PROGRAM "OpenROAD"
*VERSION "edf00dff99f6c40d67a30c0e22a8191c5d2ed9d6"
*DESIGN_FLOW "NAME_SCOPE LOCAL" "PIN_CAP NONE"
*DIVIDER /
*DELIMITER :
*BUS_DELIMITER []
*T_UNIT 1 NS
*C_UNIT 1 PF
*R_UNIT 1 OHM
*L_UNIT 1 HENRY

*NAME_MAP
*1 A[0]
*2 A[1]
*3 A[2]
*4 A[3]
*5 B[0]
*6 B[1]
*7 B[2]
*8 B[3]
*9 net16
*10 P[1]
*11 P[2]
*12 P[3]
*13 P[4]
*14 P[5]
*15 P[6]
*16 P[7]
*19 _00_
*20 _01_
*21 _02_
*22 _03_
*23 _04_
*24 _05_
*25 _06_
*26 _07_
*27 _08_
*28 _09_
*29 _10_
*30 _11_
*31 _12_
*32 _13_
*33 _14_
*34 _15_
*35 _16_
*36 _17_
*37 _18_
*38 _19_
*39 _20_
*40 _21_
*41 _22_
*42 _23_
*43 _24_
*44 _25_
*45 _26_
*46 _27_
*47 _28_
*48 _29_
*49 _30_
*50 _31_
*51 _32_
*52 _33_
*53 _34_
*54 _35_
*55 _36_
*56 net1
*57 net10
*58 net11
*59 net12
*60 net13
*61 net14
*62 net15
*63 net2
*64 net3
*65 net4
*66 net5
*67 net6
*68 net7
*69 net8
*70 net9
*71 FILLER_0_15
*72 FILLER_0_21
*73 FILLER_0_27
*74 FILLER_0_29
*75 FILLER_0_3
*76 FILLER_0_61
*77 FILLER_0_73
*78 FILLER_1_15
*79 FILLER_1_3
*80 FILLER_1_57
*81 FILLER_1_66
*82 FILLER_2_11
*83 FILLER_2_25
*84 FILLER_2_3
*85 FILLER_2_49
*86 FILLER_2_58
*87 FILLER_2_65
*88 FILLER_2_70
*89 FILLER_2_76
*90 FILLER_3_3
*91 FILLER_3_33
*92 FILLER_3_45
*93 FILLER_3_53
*94 FILLER_3_57
*95 FILLER_3_69
*96 FILLER_4_18
*97 FILLER_4_26
*98 FILLER_4_29
*99 FILLER_4_33
*100 FILLER_4_37
*101 FILLER_4_46
*102 FILLER_4_6
*103 FILLER_4_65
*104 FILLER_4_77
*105 FILLER_5_11
*106 FILLER_5_20
*107 FILLER_5_32
*108 FILLER_5_44
*109 FILLER_5_57
*110 FILLER_5_7
*111 FILLER_5_70
*112 FILLER_5_78
*113 FILLER_6_21
*114 FILLER_6_27
*115 FILLER_6_29
*116 FILLER_6_41
*117 FILLER_6_46
*118 FILLER_6_55
*119 FILLER_6_7
*120 FILLER_6_70
*121 FILLER_6_76
*122 FILLER_7_26
*123 FILLER_7_34
*124 FILLER_7_55
*125 FILLER_7_7
*126 FILLER_7_72
*127 FILLER_7_76
*128 FILLER_8_15
*129 FILLER_8_27
*130 FILLER_8_29
*131 FILLER_8_3
*132 FILLER_8_41
*133 FILLER_8_54
*134 FILLER_8_66
*135 FILLER_8_7
*136 FILLER_8_78
*137 FILLER_9_19
*138 FILLER_9_27
*139 FILLER_9_29
*140 FILLER_9_41
*141 FILLER_9_53
*142 FILLER_9_57
*143 FILLER_9_63
*144 FILLER_9_7
*145 FILLER_9_75
*146 PHY_EDGE_ROW_0_Left_10
*147 PHY_EDGE_ROW_0_Right_0
*148 PHY_EDGE_ROW_1_Left_11
*149 PHY_EDGE_ROW_1_Right_1
*150 PHY_EDGE_ROW_2_Left_12
*151 PHY_EDGE_ROW_2_Right_2
*152 PHY_EDGE_ROW_3_Left_13
*153 PHY_EDGE_ROW_3_Right_3
*154 PHY_EDGE_ROW_4_Left_14
*155 PHY_EDGE_ROW_4_Right_4
*156 PHY_EDGE_ROW_5_Left_15
*157 PHY_EDGE_ROW_5_Right_5
*158 PHY_EDGE_ROW_6_Left_16
*159 PHY_EDGE_ROW_6_Right_6
*160 PHY_EDGE_ROW_7_Left_17
*161 PHY_EDGE_ROW_7_Right_7
*162 PHY_EDGE_ROW_8_Left_18
*163 PHY_EDGE_ROW_8_Right_8
*164 PHY_EDGE_ROW_9_Left_19
*165 PHY_EDGE_ROW_9_Right_9
*166 TAP_TAPCELL_ROW_0_20
*167 TAP_TAPCELL_ROW_0_21
*168 TAP_TAPCELL_ROW_1_22
*169 TAP_TAPCELL_ROW_2_23
*170 TAP_TAPCELL_ROW_3_24
*171 TAP_TAPCELL_ROW_4_25
*172 TAP_TAPCELL_ROW_5_26
*173 TAP_TAPCELL_ROW_6_27
*174 TAP_TAPCELL_ROW_7_28
*175 TAP_TAPCELL_ROW_8_29
*176 TAP_TAPCELL_ROW_9_30
*177 TAP_TAPCELL_ROW_9_31
*178 _37_
*179 _38_
*180 _39_
*181 _40_
*182 _41_
*183 _42_
*184 _43_
*185 _44_
*186 _45_
*187 _46_
*188 _47_
*189 _48_
*190 _49_
*191 _50_
*192 _51_
*193 _52_
*194 _53_
*195 _54_
*196 _55_
*197 _56_
*198 _57_
*199 _58_
*200 _59_
*201 _60_
*202 _61_
*203 _62_
*204 _63_
*205 _64_
*206 _65_
*207 _66_
*208 _67_
*209 _68_
*210 _69_
*211 _70_
*212 _71_
*213 _72_
*214 _73_
*215 _74_
*216 _75_
*217 _76_
*218 _77_
*219 _78_
*220 _79_
*221 _80_
*222 input1
*223 input2
*224 input3
*225 input4
*226 input5
*227 input6
*228 input7
*229 input8
*230 mult4_SarsaNStepsRuido_e9_SARSA_RUIDO_e9_SARSA_RUIDO_e9_SARSA_RUIDO_e9_16
*231 output10
*232 output11
*233 output12
*234 output13
*235 output14
*236 output15
*237 output9

*PORTS
A[0] I
A[1] I
A[2] I
A[3] I
B[0] I
B[1] I
B[2] I
B[3] I
P[0] O
P[1] O
P[2] O
P[3] O
P[4] O
P[5] O
P[6] O
P[7] O

*D_NET *1 0.00103503
*CONN
*P A[0] I
*I *222:A I *D sky130_fd_sc_hd__clkbuf_2
*CAP
1 A[0] 0.000468959
2 *222:A 0.000468959
3 *222:A P[1] 0
4 *222:A *184:B1 5.70419e-05
5 *222:A *5:11 7.53384e-06
6 *222:A *56:8 1.22822e-05
7 *222:A *66:10 2.02517e-05
*RES
1 A[0] *222:A 48.0671 
*END

*D_NET *2 0.000901682
*CONN
*P A[1] I
*I *223:A I *D sky130_fd_sc_hd__dlymetal6s2s_1
*CAP
1 A[1] 0.000450841
2 *223:A 0.000450841
3 *223:A *228:A 0
4 *223:A *5:11 0
*RES
1 A[1] *223:A 47.3214 
*END

*D_NET *3 0.000618508
*CONN
*P A[2] I
*I *224:A I *D sky130_fd_sc_hd__clkbuf_2
*CAP
1 A[2] 0.00025477
2 *224:A 0.00025477
3 *224:A P[6] 0
4 *224:A P[7] 1.5289e-05
5 *224:A *8:17 2.79122e-05
6 *224:A *16:14 1.59585e-05
7 *224:A *65:34 4.9808e-05
*RES
1 A[2] *224:A 47.5169 
*END

*D_NET *4 0.000733319
*CONN
*P A[3] I
*I *225:A I *D sky130_fd_sc_hd__buf_1
*CAP
1 A[3] 0.000352215
2 *225:A 0
3 *4:17 0.000352215
4 *4:17 *8:17 2.88889e-05
5 *4:17 *65:12 0
*RES
1 A[3] *4:17 28.2148 
2 *4:17 *225:A 23 
*END

*D_NET *5 0.00218349
*CONN
*P B[0] I
*I *226:A I *D sky130_fd_sc_hd__clkbuf_1
*CAP
1 B[0] 0.000684708
2 *226:A 0
3 *5:11 0.000684708
4 *5:11 P[1] 0
5 *5:11 *179:A1 0.000140931
6 *5:11 *179:A2 0.000100069
7 *5:11 *56:8 0.00021477
8 *5:11 *56:12 0.000140313
9 *5:11 *63:6 9.67842e-05
10 *5:11 *63:10 1.46784e-05
11 *5:11 *66:10 9.89943e-05
12 *222:A *5:11 7.53384e-06
13 *223:A *5:11 0
*RES
1 B[0] *5:11 31.3643 
2 *5:11 *226:A 23 
*END

*D_NET *6 0.000931334
*CONN
*P B[1] I
*I *227:A I *D sky130_fd_sc_hd__clkbuf_2
*CAP
1 B[1] 0.000465667
2 *227:A 0.000465667
3 *227:A *228:A 0
*RES
1 B[1] *227:A 47.4457 
*END

*D_NET *7 0.000908818
*CONN
*P B[2] I
*I *228:A I *D sky130_fd_sc_hd__buf_1
*CAP
1 B[2] 0.000454409
2 *228:A 0.000454409
3 *223:A *228:A 0
4 *227:A *228:A 0
*RES
1 B[2] *228:A 47.3214 
*END

*D_NET *8 0.000768284
*CONN
*P B[3] I
*I *229:A I *D sky130_fd_sc_hd__clkbuf_2
*CAP
1 B[3] 0.000355741
2 *229:A 0
3 *8:17 0.000355741
4 *8:17 *65:34 0
5 *224:A *8:17 2.79122e-05
6 *4:17 *8:17 2.88889e-05
*RES
1 B[3] *8:17 28.3391 
2 *8:17 *229:A 23 
*END

*D_NET *9 0.000477183
*CONN
*P P[0] O
*I *230:LO O *D sky130_fd_sc_hd__conb_1
*CAP
1 P[0] 0.000202511
2 *230:LO 0.000202511
3 P[0] P[2] 7.21596e-05
*RES
1 *230:LO P[0] 47.0789 
*END

*D_NET *10 0.000945851
*CONN
*P P[1] O
*I *237:X O *D sky130_fd_sc_hd__buf_2
*CAP
1 P[1] 0.00044542
2 *237:X 0.00044542
3 P[1] *66:10 5.50106e-05
4 *222:A P[1] 0
5 *5:11 P[1] 0
*RES
1 *237:X P[1] 47.3836 
*END

*D_NET *11 0.000569548
*CONN
*P P[2] O
*I *231:X O *D sky130_fd_sc_hd__buf_2
*CAP
1 P[2] 0.000248694
2 *231:X 0.000248694
3 P[0] P[2] 7.21596e-05
*RES
1 *231:X P[2] 47.5169 
*END

*D_NET *12 0.000526339
*CONN
*P P[3] O
*I *232:X O *D sky130_fd_sc_hd__buf_2
*CAP
1 P[3] 0.00022358
2 *232:X 0.00022358
3 P[3] P[4] 7.91783e-05
4 P[3] *55:8 0
*RES
1 *232:X P[3] 47.1648 
*END

*D_NET *13 0.000516814
*CONN
*P P[4] O
*I *233:X O *D sky130_fd_sc_hd__buf_2
*CAP
1 P[4] 0.000218818
2 *233:X 0.000218818
3 P[3] P[4] 7.91783e-05
*RES
1 *233:X P[4] 47.1648 
*END

*D_NET *14 0.00100219
*CONN
*P P[5] O
*I *234:X O *D sky130_fd_sc_hd__buf_2
*CAP
1 P[5] 0.000501094
2 *234:X 0.000501094
*RES
1 *234:X P[5] 48.9786 
*END

*D_NET *15 0.000688158
*CONN
*P P[6] O
*I *235:X O *D sky130_fd_sc_hd__buf_2
*CAP
1 P[6] 0.000333456
2 *235:X 0.000333456
3 P[6] P[7] 2.12457e-05
4 P[6] *61:8 0
5 *224:A P[6] 0
*RES
1 *235:X P[6] 48.5734 
*END

*D_NET *16 0.000762608
*CONN
*P P[7] O
*I *236:X O *D sky130_fd_sc_hd__buf_2
*CAP
1 P[7] 7.65184e-05
2 *236:X 0.000278539
3 *16:14 0.000355058
4 P[6] P[7] 2.12457e-05
5 *224:A P[7] 1.5289e-05
6 *224:A *16:14 1.59585e-05
*RES
1 *236:X *16:14 49.9 
2 *16:14 P[7] 0.382667 
*END

*D_NET *19 0.00217499
*CONN
*I *183:A I *D sky130_fd_sc_hd__and3_1
*I *197:A1 I *D sky130_fd_sc_hd__a21bo_1
*I *184:B1 I *D sky130_fd_sc_hd__a21oi_1
*I *180:A I *D sky130_fd_sc_hd__nor2_1
*I *178:X O *D sky130_fd_sc_hd__and3_1
*CAP
1 *183:A 0
2 *197:A1 0.0002124
3 *184:B1 0.000530087
4 *180:A 1.12299e-05
5 *178:X 9.33891e-05
6 *19:19 0.000742487
7 *19:17 3.46122e-05
8 *19:8 0.000139231
9 *180:A *22:22 2.42543e-05
10 *184:B1 *184:A2 0
11 *184:B1 *20:10 6.618e-05
12 *184:B1 *56:8 5.50106e-05
13 *184:B1 *56:40 0
14 *197:A1 *197:A2 5.67058e-05
15 *197:A1 *197:B1_N 0
16 *197:A1 *25:14 2.18506e-05
17 *197:A1 *56:40 0
18 *19:8 *178:C 0
19 *19:8 *180:B 5.50049e-05
20 *19:8 *22:22 5.36617e-05
21 *19:17 *22:22 2.18409e-05
22 *222:A *184:B1 5.70419e-05
*RES
1 *178:X *19:8 25.0714 
2 *19:8 *180:A 23.4971 
3 *19:8 *19:17 0.621429 
4 *19:17 *19:19 15 
5 *19:19 *184:B1 46.5343 
6 *19:19 *197:A1 41.7079 
7 *19:17 *183:A 23 
*END

*D_NET *20 0.00110565
*CONN
*I *180:B I *D sky130_fd_sc_hd__nor2_1
*I *179:Y O *D sky130_fd_sc_hd__a21oi_1
*CAP
1 *180:B 1.50079e-05
2 *179:Y 0.000276292
3 *20:10 0.0002913
4 *180:B *22:22 5.50049e-05
5 *20:10 *56:8 0.000139357
6 *20:10 *56:12 9.64943e-05
7 *20:10 *56:40 2.472e-05
8 *20:10 *70:8 8.62876e-05
9 *184:B1 *20:10 6.618e-05
10 *19:8 *180:B 5.50049e-05
*RES
1 *179:Y *20:10 42.785 
2 *20:10 *180:B 38.6214 
*END

*D_NET *21 0.00288158
*CONN
*I *197:A2 I *D sky130_fd_sc_hd__a21bo_1
*I *184:A1 I *D sky130_fd_sc_hd__a21oi_1
*I *183:B I *D sky130_fd_sc_hd__and3_1
*I *181:X O *D sky130_fd_sc_hd__a22o_1
*CAP
1 *197:A2 0.000227146
2 *184:A1 9.62978e-05
3 *183:B 0
4 *181:X 0.000317284
5 *21:17 0.000507103
6 *21:8 0.000500943
7 *184:A1 *184:A2 0.000166513
8 *184:A1 *24:12 3.05976e-05
9 *197:A2 *184:A2 0.00010803
10 *197:A2 *186:A 4.85126e-05
11 *197:A2 *187:A1 3.31127e-05
12 *197:A2 *197:B1_N 0.000110922
13 *197:A2 *24:12 0
14 *197:A2 *25:14 0.000272377
15 *21:8 *22:22 0.000353339
16 *21:17 *22:22 2.31199e-06
17 *21:17 *22:31 4.74555e-05
18 *21:17 *23:8 2.92911e-06
19 *197:A1 *197:A2 5.67058e-05
*RES
1 *181:X *21:8 28.8829 
2 *21:8 *183:B 23 
3 *21:8 *21:17 17.5271 
4 *21:17 *184:A1 40.2579 
5 *21:17 *197:A2 44.67 
*END

*D_NET *22 0.00365511
*CONN
*I *197:B1_N I *D sky130_fd_sc_hd__a21bo_1
*I *184:A2 I *D sky130_fd_sc_hd__a21oi_1
*I *183:C I *D sky130_fd_sc_hd__and3_1
*I *182:Y O *D sky130_fd_sc_hd__nand4_1
*CAP
1 *197:B1_N 6.86131e-05
2 *184:A2 0.00016184
3 *183:C 0
4 *182:Y 0.000664603
5 *22:31 0.000297356
6 *22:22 0.000731506
7 *184:A2 *70:8 0
8 *22:22 *178:C 0.000137955
9 *22:22 *181:B1 2.93985e-05
10 *22:22 *35:10 0.000143373
11 *22:22 *56:54 0.000143505
12 *22:22 *67:40 0.000229534
13 *22:22 *67:55 5.61255e-06
14 *22:31 *23:8 9.84794e-05
15 *180:A *22:22 2.42543e-05
16 *180:B *22:22 5.50049e-05
17 *184:A1 *184:A2 0.000166513
18 *184:B1 *184:A2 0
19 *197:A1 *197:B1_N 0
20 *197:A2 *184:A2 0.00010803
21 *197:A2 *197:B1_N 0.000110922
22 *19:8 *22:22 5.36617e-05
23 *19:17 *22:22 2.18409e-05
24 *21:8 *22:22 0.000353339
25 *21:17 *22:22 2.31199e-06
26 *21:17 *22:31 4.74555e-05
*RES
1 *182:Y *22:22 38.8879 
2 *22:22 *183:C 23 
3 *22:22 *22:31 16.9679 
4 *22:31 *184:A2 41.6664 
5 *22:31 *197:B1_N 39.5536 
*END

*D_NET *23 0.000988851
*CONN
*I *186:A I *D sky130_fd_sc_hd__nor3_1
*I *187:A1 I *D sky130_fd_sc_hd__o21a_1
*I *183:X O *D sky130_fd_sc_hd__and3_1
*CAP
1 *186:A 0.000112683
2 *187:A1 2.15394e-05
3 *183:X 0.000199812
4 *23:8 0.000334034
5 *186:A *186:B 4.96264e-05
6 *186:A *25:14 5.50106e-05
7 *187:A1 *186:B 2.70366e-05
8 *187:A1 *24:12 6.07611e-06
9 *197:A2 *186:A 4.85126e-05
10 *197:A2 *187:A1 3.31127e-05
11 *21:17 *23:8 2.92911e-06
12 *22:31 *23:8 9.84794e-05
*RES
1 *183:X *23:8 40.5271 
2 *23:8 *187:A1 38.8493 
3 *23:8 *186:A 40.175 
*END

*D_NET *24 0.0011165
*CONN
*I *186:B I *D sky130_fd_sc_hd__nor3_1
*I *187:A2 I *D sky130_fd_sc_hd__o21a_1
*I *184:Y O *D sky130_fd_sc_hd__a21oi_1
*CAP
1 *186:B 0.000140989
2 *187:A2 3.78039e-05
3 *184:Y 0.000223094
4 *24:12 0.000401886
5 *186:B *186:C 6.17437e-06
6 *186:B *25:14 2.64616e-05
7 *186:B *25:20 0.000139647
8 *186:B *27:8 1.69668e-05
9 *24:12 *25:20 1.01436e-05
10 *184:A1 *24:12 3.05976e-05
11 *186:A *186:B 4.96264e-05
12 *187:A1 *186:B 2.70366e-05
13 *187:A1 *24:12 6.07611e-06
14 *197:A2 *24:12 0
*RES
1 *184:Y *24:12 41.5007 
2 *24:12 *187:A2 38.6214 
3 *24:12 *186:B 41.2314 
*END

*D_NET *25 0.00187427
*CONN
*I *186:C I *D sky130_fd_sc_hd__nor3_1
*I *187:B1 I *D sky130_fd_sc_hd__o21a_1
*I *185:Y O *D sky130_fd_sc_hd__nand2_1
*CAP
1 *186:C 7.00445e-05
2 *187:B1 0
3 *185:Y 0.000486718
4 *25:20 7.04346e-05
5 *25:14 0.000627197
6 *186:C *188:A 0
7 *186:C *26:8 5.37348e-06
8 *25:14 *185:A 2.46468e-05
9 *25:14 *195:A 0
10 *25:14 *36:10 1.73399e-05
11 *25:20 *27:8 4.08537e-05
12 *186:A *25:14 5.50106e-05
13 *186:B *186:C 6.17437e-06
14 *186:B *25:14 2.64616e-05
15 *186:B *25:20 0.000139647
16 *197:A1 *25:14 2.18506e-05
17 *197:A2 *25:14 0.000272377
18 *24:12 *25:20 1.01436e-05
*RES
1 *185:Y *25:14 31.5757 
2 *25:14 *25:20 31.9057 
3 *25:20 *187:B1 23 
4 *25:14 *186:C 24.4707 
*END

*D_NET *26 0.00182756
*CONN
*I *188:A I *D sky130_fd_sc_hd__nor2_1
*I *219:B1 I *D sky130_fd_sc_hd__a21oi_1
*I *203:A I *D sky130_fd_sc_hd__and3_1
*I *186:Y O *D sky130_fd_sc_hd__nor3_1
*CAP
1 *188:A 4.59068e-05
2 *219:B1 4.199e-05
3 *203:A 9.36933e-05
4 *186:Y 0.000118148
5 *26:14 0.000602813
6 *26:8 0.000631184
7 *188:A *57:8 2.4754e-05
8 *203:A *203:C 0
9 *203:A *219:A1 3.61695e-05
10 *203:A *219:A2 5.67058e-05
11 *26:8 *188:B 9.84851e-05
12 *26:8 *57:8 7.53384e-06
13 *26:14 *37:18 0
14 *26:14 *41:8 0
15 *26:14 *55:8 6.48049e-05
16 *186:C *188:A 0
17 *186:C *26:8 5.37348e-06
*RES
1 *186:Y *26:8 25.5479 
2 *26:8 *26:14 38.5964 
3 *26:14 *203:A 25.0714 
4 *26:14 *219:B1 23.6214 
5 *26:8 *188:A 24.1186 
*END

*D_NET *27 0.000479017
*CONN
*I *188:B I *D sky130_fd_sc_hd__nor2_1
*I *187:X O *D sky130_fd_sc_hd__o21a_1
*CAP
1 *188:B 4.56369e-05
2 *187:X 0.000115719
3 *27:8 0.000161356
4 *186:B *27:8 1.69668e-05
5 *25:20 *27:8 4.08537e-05
6 *26:8 *188:B 9.84851e-05
*RES
1 *187:X *27:8 39.9057 
2 *27:8 *188:B 39.0979 
*END

*D_NET *28 0.00235082
*CONN
*I *206:A1 I *D sky130_fd_sc_hd__a21bo_1
*I *192:A I *D sky130_fd_sc_hd__nand3_1
*I *193:B1 I *D sky130_fd_sc_hd__a21o_1
*I *189:X O *D sky130_fd_sc_hd__and2_1
*CAP
1 *206:A1 0
2 *192:A 0.000103116
3 *193:B1 0
4 *189:X 0.000361627
5 *28:18 0.000307975
6 *28:12 0.00020486
7 *28:10 0.000361627
8 *192:A *192:B 0.000203522
9 *192:A *192:C 0.000143655
10 *192:A *31:10 4.84129e-06
11 *192:A *32:10 8.39049e-06
12 *28:10 *189:B 1.00765e-05
13 *28:10 *190:C 0
14 *28:10 *191:B2 4.92689e-05
15 *28:10 *64:29 4.96922e-05
16 *28:10 *67:8 8.4047e-05
17 *28:10 *69:25 0
18 *28:18 *192:B 0.000221965
19 *28:18 *192:C 2.9938e-05
20 *28:18 *193:A1 0.000116129
21 *28:18 *206:A2 9.00923e-05
*RES
1 *189:X *28:10 43.3443 
2 *28:10 *28:12 15 
3 *28:12 *28:18 5.30286 
4 *28:18 *193:B1 23 
5 *28:18 *192:A 27.1429 
6 *28:12 *206:A1 23 
*END

*D_NET *29 0.00237447
*CONN
*I *193:A1 I *D sky130_fd_sc_hd__a21o_1
*I *206:B1_N I *D sky130_fd_sc_hd__a21bo_1
*I *192:B I *D sky130_fd_sc_hd__nand3_1
*I *190:Y O *D sky130_fd_sc_hd__nand4_1
*CAP
1 *193:A1 4.87423e-05
2 *206:B1_N 0
3 *192:B 0.000244516
4 *190:Y 0.000237992
5 *29:29 7.3526e-05
6 *29:10 0.000507291
7 *192:B *32:10 8.1796e-05
8 *193:A1 *192:C 3.46255e-05
9 *193:A1 *206:A2 5.3304e-05
10 *29:10 *30:10 8.4047e-05
11 *29:10 *64:29 8.62876e-05
12 *29:10 *69:40 0.000268873
13 *29:29 *30:10 5.94125e-05
14 *29:29 *64:29 5.24393e-05
15 *192:A *192:B 0.000203522
16 *28:18 *192:B 0.000221965
17 *28:18 *193:A1 0.000116129
*RES
1 *190:Y *29:10 42.205 
2 *29:10 *192:B 43.9243 
3 *29:10 *29:29 15.8493 
4 *29:29 *206:B1_N 23 
5 *29:29 *193:A1 24.595 
*END

*D_NET *30 0.00149768
*CONN
*I *192:C I *D sky130_fd_sc_hd__nand3_1
*I *193:A2 I *D sky130_fd_sc_hd__a21o_1
*I *206:A2 I *D sky130_fd_sc_hd__a21bo_1
*I *191:X O *D sky130_fd_sc_hd__a22o_1
*CAP
1 *192:C 0.000147904
2 *193:A2 0
3 *206:A2 0.00015017
4 *191:X 0.000182394
5 *30:12 0.000298075
6 *30:10 0.000182394
7 *30:10 *64:29 1.22803e-05
8 *30:10 *64:46 2.93845e-05
9 *192:A *192:C 0.000143655
10 *193:A1 *192:C 3.46255e-05
11 *193:A1 *206:A2 5.3304e-05
12 *28:18 *192:C 2.9938e-05
13 *28:18 *206:A2 9.00923e-05
14 *29:10 *30:10 8.4047e-05
15 *29:29 *30:10 5.94125e-05
*RES
1 *191:X *30:10 40.8793 
2 *30:10 *30:12 15 
3 *30:12 *206:A2 26.0036 
4 *30:12 *193:A2 23 
5 *30:12 *192:C 26.5007 
*END

*D_NET *31 0.00107983
*CONN
*I *200:B2 I *D sky130_fd_sc_hd__a32oi_1
*I *194:A I *D sky130_fd_sc_hd__nand2_1
*I *192:Y O *D sky130_fd_sc_hd__nand3_1
*CAP
1 *200:B2 5.43946e-05
2 *194:A 0
3 *192:Y 0.000221917
4 *31:12 5.43946e-05
5 *31:10 0.000221917
6 *200:B2 *200:B1 0.000142916
7 *200:B2 *35:14 5.50106e-05
8 *31:10 *32:10 0.00021895
9 *31:10 *35:10 0.00010549
10 *192:A *31:10 4.84129e-06
*RES
1 *192:Y *31:10 43.365 
2 *31:10 *31:12 15 
3 *31:12 *194:A 23 
4 *31:12 *200:B2 24.5743 
*END

*D_NET *32 0.0016551
*CONN
*I *200:B1 I *D sky130_fd_sc_hd__a32oi_1
*I *194:B I *D sky130_fd_sc_hd__nand2_1
*I *193:X O *D sky130_fd_sc_hd__a21o_1
*CAP
1 *200:B1 0.00014507
2 *194:B 0
3 *193:X 0.00036532
4 *32:12 0.00014507
5 *32:10 0.00036532
6 *200:B1 *33:10 8.16279e-05
7 *200:B1 *35:14 4.50096e-05
8 *200:B1 *39:10 5.56356e-05
9 *32:10 *35:10 0
10 *192:A *32:10 8.39049e-06
11 *192:B *32:10 8.1796e-05
12 *200:B2 *200:B1 0.000142916
13 *31:10 *32:10 0.00021895
*RES
1 *193:X *32:10 44.67 
2 *32:10 *32:12 15 
3 *32:12 *194:B 23 
4 *32:12 *200:B1 26.9771 
*END

*D_NET *33 0.0039659
*CONN
*I *209:A1 I *D sky130_fd_sc_hd__o21ai_1
*I *211:A I *D sky130_fd_sc_hd__or3_1
*I *213:A1_N I *D sky130_fd_sc_hd__a2bb2o_1
*I *201:B2 I *D sky130_fd_sc_hd__o2bb2a_1
*I *210:A I *D sky130_fd_sc_hd__nor3_1
*I *194:Y O *D sky130_fd_sc_hd__nand2_1
*CAP
1 *209:A1 9.0384e-05
2 *211:A 8.60091e-05
3 *213:A1_N 0
4 *201:B2 0
5 *210:A 0
6 *194:Y 0.000290593
7 *33:45 0.000313416
8 *33:38 0.000314398
9 *33:23 0.000524417
10 *33:14 0.000406826
11 *33:10 0.000624422
12 *209:A1 *209:A2 1.4373e-05
13 *209:A1 *46:12 3.70187e-05
14 *209:A1 *54:6 5.40241e-05
15 *211:A *209:A2 9.41704e-05
16 *211:A *211:C 6.68705e-05
17 *211:A *47:8 1.59071e-05
18 *211:A *54:6 5.61255e-06
19 *33:10 *34:58 0.00016419
20 *33:14 *201:A1_N 0.000102389
21 *33:14 *210:C 6.97002e-05
22 *33:14 *34:62 1.10658e-05
23 *33:14 *46:6 2.93845e-05
24 *33:23 *201:A1_N 0.000159872
25 *33:23 *40:10 1.13227e-05
26 *33:23 *48:10 1.32939e-05
27 *33:38 *37:18 0.000194318
28 *33:38 *48:10 0
29 *33:45 *34:58 2.60152e-05
30 *33:45 *46:12 0.000164282
31 *200:B1 *33:10 8.16279e-05
*RES
1 *194:Y *33:10 43.945 
2 *33:10 *33:14 18.48 
3 *33:14 *210:A 23 
4 *33:14 *33:23 4.45357 
5 *33:23 *201:B2 23 
6 *33:23 *33:38 36.1107 
7 *33:38 *213:A1_N 23 
8 *33:10 *33:45 2.96214 
9 *33:45 *211:A 40.0714 
10 *33:45 *209:A1 39.9471 
*END

*D_NET *34 0.00575281
*CONN
*I *211:B I *D sky130_fd_sc_hd__or3_1
*I *209:A2 I *D sky130_fd_sc_hd__o21ai_1
*I *210:B I *D sky130_fd_sc_hd__nor3_1
*I *201:A1_N I *D sky130_fd_sc_hd__o2bb2a_1
*I *200:A1 I *D sky130_fd_sc_hd__a32oi_1
*I *198:A I *D sky130_fd_sc_hd__nand3_1
*I *199:B1_N I *D sky130_fd_sc_hd__a21boi_1
*I *202:A1 I *D sky130_fd_sc_hd__a21o_1
*I *195:Y O *D sky130_fd_sc_hd__nand4_4
*CAP
1 *211:B 0
2 *209:A2 0.000126399
3 *210:B 0
4 *201:A1_N 7.94395e-05
5 *200:A1 7.32619e-05
6 *198:A 5.61823e-05
7 *199:B1_N 0.000339951
8 *202:A1 0
9 *195:Y 0.000189152
10 *34:80 0.000198969
11 *34:62 0.000154253
12 *34:58 0.000492384
13 *34:47 0.00048264
14 *34:22 0.000409346
15 *34:18 0.000671766
16 *34:10 0.000799719
17 *198:A *36:10 9.21347e-06
18 *199:B1_N *199:A1 0.000274078
19 *199:B1_N *38:10 1.02949e-05
20 *200:A1 *35:14 9.92345e-05
21 *201:A1_N *210:C 3.85196e-05
22 *201:A1_N *40:10 4.11671e-05
23 *201:A1_N *48:10 5.0082e-05
24 *34:10 *185:B 5.68958e-05
25 *34:10 *35:10 0.000117121
26 *34:18 *36:10 2.29192e-05
27 *34:22 *199:A1 4.34745e-05
28 *34:22 *35:27 5.50106e-05
29 *34:47 *35:10 3.72639e-05
30 *34:58 *35:10 1.22803e-05
31 *34:58 *46:12 3.70187e-05
32 *34:62 *210:C 0.000100069
33 *34:80 *46:12 0.000102629
34 *209:A1 *209:A2 1.4373e-05
35 *211:A *209:A2 9.41704e-05
36 *33:10 *34:58 0.00016419
37 *33:14 *201:A1_N 0.000102389
38 *33:14 *34:62 1.10658e-05
39 *33:23 *201:A1_N 0.000159872
40 *33:45 *34:58 2.60152e-05
*RES
1 *195:Y *34:10 42.06 
2 *34:10 *34:18 37.0636 
3 *34:18 *34:22 16.0979 
4 *34:22 *202:A1 23 
5 *34:22 *199:B1_N 28.7586 
6 *34:18 *198:A 38.8493 
7 *34:10 *34:47 1.20143 
8 *34:47 *200:A1 39.0979 
9 *34:47 *34:58 7.18786 
10 *34:58 *34:62 16.5743 
11 *34:62 *201:A1_N 26.5473 
12 *34:62 *210:B 23 
13 *34:58 *34:80 16.5536 
14 *34:80 *209:A2 24.5743 
15 *34:80 *211:B 23 
*END

*D_NET *35 0.0037445
*CONN
*I *200:A2 I *D sky130_fd_sc_hd__a32oi_1
*I *199:A1 I *D sky130_fd_sc_hd__a21boi_1
*I *202:A2 I *D sky130_fd_sc_hd__a21o_1
*I *198:B I *D sky130_fd_sc_hd__nand3_1
*I *196:X O *D sky130_fd_sc_hd__a22o_1
*CAP
1 *200:A2 0
2 *199:A1 4.43968e-05
3 *202:A2 2.1727e-05
4 *198:B 0
5 *196:X 0.000477368
6 *35:27 0.000104393
7 *35:20 0.000337294
8 *35:14 0.000397492
9 *35:10 0.000575835
10 *199:A1 *199:A2 0.000143655
11 *199:A1 *36:32 7.42621e-05
12 *199:A1 *38:10 1.32939e-05
13 *202:A2 *36:19 0
14 *202:A2 *36:32 4.00259e-06
15 *35:10 *195:B 1.37349e-05
16 *35:10 *56:48 5.84705e-05
17 *35:10 *63:10 0.000115013
18 *35:10 *63:34 0.000123172
19 *35:14 *39:10 3.18142e-05
20 *35:20 *200:A3 0.000127867
21 *35:20 *36:19 5.90675e-06
22 *35:20 *36:32 2.80512e-05
23 *35:20 *39:10 6.82228e-06
24 *35:27 *36:32 5.25848e-05
25 *199:B1_N *199:A1 0.000274078
26 *200:A1 *35:14 9.92345e-05
27 *200:B1 *35:14 4.50096e-05
28 *200:B2 *35:14 5.50106e-05
29 *22:22 *35:10 0.000143373
30 *31:10 *35:10 0.00010549
31 *32:10 *35:10 0
32 *34:10 *35:10 0.000117121
33 *34:22 *199:A1 4.34745e-05
34 *34:22 *35:27 5.50106e-05
35 *34:47 *35:10 3.72639e-05
36 *34:58 *35:10 1.22803e-05
*RES
1 *196:X *35:10 48.5229 
2 *35:10 *35:14 17.5271 
3 *35:14 *35:20 4.95071 
4 *35:20 *198:B 23 
5 *35:20 *35:27 1.09786 
6 *35:27 *202:A2 23.4971 
7 *35:27 *199:A1 26.48 
8 *35:14 *200:A2 23 
*END

*D_NET *36 0.00183528
*CONN
*I *199:A2 I *D sky130_fd_sc_hd__a21boi_1
*I *202:B1 I *D sky130_fd_sc_hd__a21o_1
*I *200:A3 I *D sky130_fd_sc_hd__a32oi_1
*I *198:C I *D sky130_fd_sc_hd__nand3_1
*I *197:X O *D sky130_fd_sc_hd__a21bo_1
*CAP
1 *199:A2 2.34978e-05
2 *202:B1 0
3 *200:A3 4.85326e-05
4 *198:C 0
5 *197:X 0.000307656
6 *36:32 0.000173739
7 *36:19 0.000220131
8 *36:12 2.13572e-05
9 *36:10 0.000307656
10 *199:A2 *38:10 5.29672e-05
11 *200:A3 *39:10 0.000123666
12 *36:32 *38:10 5.70419e-05
13 *36:32 *39:10 1.32314e-05
14 *198:A *36:10 9.21347e-06
15 *199:A1 *199:A2 0.000143655
16 *199:A1 *36:32 7.42621e-05
17 *202:A2 *36:19 0
18 *202:A2 *36:32 4.00259e-06
19 *25:14 *36:10 1.73399e-05
20 *34:18 *36:10 2.29192e-05
21 *35:20 *200:A3 0.000127867
22 *35:20 *36:19 5.90675e-06
23 *35:20 *36:32 2.80512e-05
24 *35:27 *36:32 5.25848e-05
*RES
1 *197:X *36:10 42.9921 
2 *36:10 *36:12 15 
3 *36:12 *198:C 23 
4 *36:12 *36:19 0.497143 
5 *36:19 *200:A3 25.5271 
6 *36:19 *36:32 4.47429 
7 *36:32 *202:B1 23 
8 *36:32 *199:A2 24.5743 
*END

*D_NET *37 0.00255372
*CONN
*I *219:A1 I *D sky130_fd_sc_hd__a21oi_1
*I *203:B I *D sky130_fd_sc_hd__and3_1
*I *213:A2_N I *D sky130_fd_sc_hd__a2bb2o_1
*I *198:Y O *D sky130_fd_sc_hd__nand3_1
*CAP
1 *219:A1 0.000124268
2 *203:B 0
3 *213:A2_N 0
4 *198:Y 4.97561e-05
5 *37:25 0.000218683
6 *37:18 0.000250721
7 *37:12 0.000666021
8 *37:8 0.000370642
9 *219:A1 *203:C 0
10 *219:A1 *219:A2 0.000130423
11 *219:A1 *41:12 1.32314e-05
12 *37:8 *38:10 4.08537e-05
13 *37:8 *39:10 2.79004e-05
14 *37:12 *41:12 3.3577e-05
15 *37:18 *38:10 0
16 *37:18 *41:8 4.54033e-05
17 *37:18 *42:8 0.00014411
18 *37:18 *42:21 0.00015822
19 *37:18 *55:8 0
20 *37:25 *41:12 4.94192e-05
21 *203:A *219:A1 3.61695e-05
22 *26:14 *37:18 0
23 *33:38 *37:18 0.000194318
*RES
1 *198:Y *37:8 39.2014 
2 *37:8 *37:12 18.9564 
3 *37:12 *37:18 36.8357 
4 *37:18 *213:A2_N 23 
5 *37:12 *37:25 1.57429 
6 *37:25 *203:B 23 
7 *37:25 *219:A1 26.3971 
*END

*D_NET *38 0.00122398
*CONN
*I *201:B1 I *D sky130_fd_sc_hd__o2bb2a_1
*I *199:Y O *D sky130_fd_sc_hd__a21boi_1
*CAP
1 *201:B1 0
2 *199:Y 0.000524766
3 *38:10 0.000524766
4 *38:10 *39:10 0
5 *38:10 *41:8 0
6 *199:A1 *38:10 1.32939e-05
7 *199:A2 *38:10 5.29672e-05
8 *199:B1_N *38:10 1.02949e-05
9 *36:32 *38:10 5.70419e-05
10 *37:8 *38:10 4.08537e-05
11 *37:18 *38:10 0
*RES
1 *199:Y *38:10 46.6793 
2 *38:10 *201:B1 38 
*END

*D_NET *39 0.00113119
*CONN
*I *201:A2_N I *D sky130_fd_sc_hd__o2bb2a_1
*I *200:Y O *D sky130_fd_sc_hd__a32oi_1
*CAP
1 *201:A2_N 0
2 *200:Y 0.000436061
3 *39:10 0.000436061
4 *39:10 *41:8 0
5 *200:A3 *39:10 0.000123666
6 *200:B1 *39:10 5.56356e-05
7 *35:14 *39:10 3.18142e-05
8 *35:20 *39:10 6.82228e-06
9 *36:32 *39:10 1.32314e-05
10 *37:8 *39:10 2.79004e-05
11 *38:10 *39:10 0
*RES
1 *200:Y *39:10 46.8036 
2 *39:10 *201:A2_N 38 
*END

*D_NET *40 0.00199755
*CONN
*I *204:A I *D sky130_fd_sc_hd__xor2_1
*I *213:B1 I *D sky130_fd_sc_hd__a2bb2o_1
*I *217:A1 I *D sky130_fd_sc_hd__a31o_1
*I *201:X O *D sky130_fd_sc_hd__o2bb2a_1
*CAP
1 *204:A 9.62117e-05
2 *213:B1 0
3 *217:A1 0
4 *201:X 0.000129899
5 *40:23 0.000492637
6 *40:10 0.000526324
7 *204:A *204:B 4.95081e-05
8 *204:A *233:A 0
9 *40:10 *42:29 6.16531e-05
10 *40:10 *48:10 0.000234036
11 *40:23 *204:B 3.22879e-05
12 *40:23 *212:A 0.00014196
13 *40:23 *42:29 7.67421e-05
14 *40:23 *42:38 5.70419e-05
15 *40:23 *48:10 1.14452e-05
16 *40:23 *49:8 3.53115e-05
17 *201:A1_N *40:10 4.11671e-05
18 *33:23 *40:10 1.13227e-05
*RES
1 *201:X *40:10 41.3557 
2 *40:10 *217:A1 38 
3 *40:10 *40:23 23.1407 
4 *40:23 *213:B1 23 
5 *40:23 *204:A 25.0714 
*END

*D_NET *41 0.000993953
*CONN
*I *219:A2 I *D sky130_fd_sc_hd__a21oi_1
*I *203:C I *D sky130_fd_sc_hd__and3_1
*I *202:X O *D sky130_fd_sc_hd__a21o_1
*CAP
1 *219:A2 3.48934e-05
2 *203:C 3.12373e-05
3 *202:X 0.000144652
4 *41:12 0.000187944
5 *41:8 0.000266466
6 *203:A *203:C 0
7 *203:A *219:A2 5.67058e-05
8 *219:A1 *203:C 0
9 *219:A1 *219:A2 0.000130423
10 *219:A1 *41:12 1.32314e-05
11 *26:14 *41:8 0
12 *37:12 *41:12 3.3577e-05
13 *37:18 *41:8 4.54033e-05
14 *37:25 *41:12 4.94192e-05
15 *38:10 *41:8 0
16 *39:10 *41:8 0
*RES
1 *202:X *41:8 40.61 
2 *41:8 *41:12 17.5271 
3 *41:12 *203:C 23.725 
4 *41:12 *219:A2 24.5743 
*END

*D_NET *42 0.00276696
*CONN
*I *204:B I *D sky130_fd_sc_hd__xor2_1
*I *213:B2 I *D sky130_fd_sc_hd__a2bb2o_1
*I *217:A2 I *D sky130_fd_sc_hd__a31o_1
*I *220:A I *D sky130_fd_sc_hd__nor2_1
*I *203:X O *D sky130_fd_sc_hd__and3_1
*CAP
1 *204:B 5.33322e-05
2 *213:B2 0
3 *217:A2 0
4 *220:A 0.000170655
5 *203:X 7.5314e-05
6 *42:38 0.000133575
7 *42:29 0.000484963
8 *42:21 0.000660813
9 *42:8 0.000341576
10 *42:8 *55:8 0
11 *42:29 *49:8 0.000267167
12 *42:38 *49:8 0
13 *204:A *204:B 4.95081e-05
14 *37:18 *42:8 0.00014411
15 *37:18 *42:21 0.00015822
16 *40:10 *42:29 6.16531e-05
17 *40:23 *204:B 3.22879e-05
18 *40:23 *42:29 7.67421e-05
19 *40:23 *42:38 5.70419e-05
*RES
1 *203:X *42:8 39.9057 
2 *42:8 *220:A 41.0036 
3 *42:8 *42:21 17.2579 
4 *42:21 *42:29 37.1879 
5 *42:29 *217:A2 23 
6 *42:21 *42:38 1.94714 
7 *42:38 *213:B2 23 
8 *42:38 *204:B 24.5743 
*END

*D_NET *43 0.00036972
*CONN
*I *208:A I *D sky130_fd_sc_hd__xor2_1
*I *205:Y O *D sky130_fd_sc_hd__nand2_1
*CAP
1 *208:A 5.25882e-05
2 *205:Y 9.07631e-05
3 *43:8 0.000143351
4 *208:A *52:10 3.71251e-05
5 *43:8 *208:B 4.58924e-05
*RES
1 *205:Y *43:8 39.9057 
2 *43:8 *208:A 39.0979 
*END

*D_NET *44 0.00126723
*CONN
*I *208:B I *D sky130_fd_sc_hd__xor2_1
*I *207:C I *D sky130_fd_sc_hd__and3_1
*I *206:X O *D sky130_fd_sc_hd__a21bo_1
*CAP
1 *208:B 0.000117507
2 *207:C 1.32091e-05
3 *206:X 0.000261527
4 *44:8 0.000392243
5 *207:C *45:10 3.98834e-05
6 *207:C *64:16 3.98834e-05
7 *208:B *45:10 0
8 *208:B *45:23 0
9 *208:B *64:10 3.81554e-05
10 *208:B *65:47 1.01436e-05
11 *44:8 *64:10 4.21594e-06
12 *44:8 *64:29 0
13 *44:8 *65:34 0
14 *44:8 *69:12 0
15 *44:8 *69:25 0.00030457
16 *43:8 *208:B 4.58924e-05
*RES
1 *206:X *44:8 43.4271 
2 *44:8 *207:C 38.4557 
3 *44:8 *208:B 40.61 
*END

*D_NET *45 0.00206351
*CONN
*I *221:A2 I *D sky130_fd_sc_hd__a22o_1
*I *216:A2 I *D sky130_fd_sc_hd__a21bo_1
*I *215:B1 I *D sky130_fd_sc_hd__a21o_1
*I *207:X O *D sky130_fd_sc_hd__and3_1
*CAP
1 *221:A2 7.19141e-05
2 *216:A2 0
3 *215:B1 0
4 *207:X 0.00024441
5 *45:23 0.000266034
6 *45:10 0.00043853
7 *221:A2 *221:A1 0.000315857
8 *221:A2 *221:B1 0.00014196
9 *221:A2 *54:14 2.32004e-05
10 *221:A2 *62:8 0.000110226
11 *45:10 *64:10 0.000111852
12 *45:10 *64:16 8.13283e-05
13 *45:10 *65:34 0
14 *45:10 *69:12 4.334e-05
15 *45:10 *69:19 1.32939e-05
16 *45:23 *221:A1 7.75329e-06
17 *45:23 *53:10 2.93845e-05
18 *45:23 *54:14 7.53384e-06
19 *45:23 *62:8 5.41385e-05
20 *45:23 *65:47 6.28695e-05
21 *207:C *45:10 3.98834e-05
22 *208:B *45:10 0
23 *208:B *45:23 0
*RES
1 *207:X *45:10 42.4329 
2 *45:10 *215:B1 38 
3 *45:10 *45:23 19.4121 
4 *45:23 *216:A2 23 
5 *45:23 *221:A2 26.9564 
*END

*D_NET *46 0.00207732
*CONN
*I *210:C I *D sky130_fd_sc_hd__nor3_1
*I *211:C I *D sky130_fd_sc_hd__or3_1
*I *209:B1 I *D sky130_fd_sc_hd__o21ai_1
*I *208:X O *D sky130_fd_sc_hd__xor2_1
*CAP
1 *210:C 6.74751e-05
2 *211:C 3.95561e-05
3 *209:B1 0
4 *208:X 0.000502518
5 *46:12 0.000131251
6 *46:6 0.000661688
7 *211:C *47:8 2.93431e-05
8 *201:A1_N *210:C 3.85196e-05
9 *209:A1 *46:12 3.70187e-05
10 *211:A *211:C 6.68705e-05
11 *33:14 *210:C 6.97002e-05
12 *33:14 *46:6 2.93845e-05
13 *33:45 *46:12 0.000164282
14 *34:58 *46:12 3.70187e-05
15 *34:62 *210:C 0.000100069
16 *34:80 *46:12 0.000102629
*RES
1 *208:X *46:6 32.1971 
2 *46:6 *46:12 32.61 
3 *46:12 *209:B1 23 
4 *46:12 *211:C 24.1186 
5 *46:6 *210:C 25.0714 
*END

*D_NET *47 0.00107885
*CONN
*I *212:A I *D sky130_fd_sc_hd__nand2_1
*I *217:A3 I *D sky130_fd_sc_hd__a31o_1
*I *209:Y O *D sky130_fd_sc_hd__o21ai_1
*CAP
1 *212:A 8.45712e-05
2 *217:A3 0
3 *209:Y 0.000137505
4 *47:8 0.000222077
5 *212:A *49:8 0.000117913
6 *47:8 *49:8 5.0082e-05
7 *47:8 *54:6 0.000279495
8 *211:A *47:8 1.59071e-05
9 *211:C *47:8 2.93431e-05
10 *40:23 *212:A 0.00014196
*RES
1 *209:Y *47:8 27.4536 
2 *47:8 *217:A3 23 
3 *47:8 *212:A 25.5271 
*END

*D_NET *48 0.000896047
*CONN
*I *217:B1 I *D sky130_fd_sc_hd__a31o_1
*I *210:Y O *D sky130_fd_sc_hd__nor3_1
*CAP
1 *217:B1 0
2 *210:Y 0.000293595
3 *48:10 0.000293595
4 *201:A1_N *48:10 5.0082e-05
5 *33:23 *48:10 1.32939e-05
6 *33:38 *48:10 0
7 *40:10 *48:10 0.000234036
8 *40:23 *48:10 1.14452e-05
*RES
1 *210:Y *48:10 42.9093 
2 *48:10 *217:B1 38 
*END

*D_NET *49 0.000890603
*CONN