*SPEF "ieee 1481-1999"
*DESIGN "mult8_2bits_2op_e2479"
*DATE "12:24:37 Wednesday September 17, 2025"
*VENDOR "The OpenROAD Project"
*PROGRAM "OpenROAD"
*VERSION "edf00dff99f6c40d67a30c0e22a8191c5d2ed9d6"
*DESIGN_FLOW "NAME_SCOPE LOCAL" "PIN_CAP NONE"
*DIVIDER /
*DELIMITER :
*BUS_DELIMITER []
*T_UNIT 1 NS
*C_UNIT 1 PF
*R_UNIT 1 OHM
*L_UNIT 1 HENRY

*NAME_MAP
*1 A[0]
*2 A[1]
*3 A[2]
*4 A[3]
*5 A[4]
*6 A[5]
*7 A[6]
*8 A[7]
*9 B[0]
*10 B[1]
*11 B[2]
*12 B[3]
*13 B[4]
*14 B[5]
*15 B[6]
*16 B[7]
*17 net54
*18 P[10]
*19 P[11]
*20 P[12]
*21 P[13]
*22 P[14]
*23 P[15]
*24 P[1]
*25 P[2]
*26 P[3]
*27 P[4]
*28 P[5]
*29 P[6]
*30 P[7]
*31 P[8]
*32 P[9]
*35 _000_
*36 _001_
*37 _002_
*38 _003_
*39 _004_
*40 _005_
*41 _006_
*42 _007_
*43 _008_
*44 _009_
*45 _010_
*46 _011_
*47 _012_
*48 _013_
*49 _014_
*50 _015_
*51 _016_
*52 _017_
*53 _018_
*54 _019_
*55 _020_
*56 _021_
*57 _022_
*58 _023_
*59 _024_
*60 _025_
*61 _026_
*62 _027_
*63 _028_
*64 _029_
*65 _030_
*66 _031_
*67 _032_
*68 _033_
*69 _034_
*70 _035_
*71 _036_
*72 _037_
*73 _038_
*74 _039_
*75 _040_
*76 _041_
*77 _042_
*78 _043_
*79 _044_
*80 _045_
*81 _046_
*82 _047_
*83 _048_
*84 _049_
*85 _050_
*86 _051_
*87 _052_
*88 _053_
*89 _054_
*90 _055_
*91 _056_
*92 _057_
*93 _058_
*94 _059_
*95 _060_
*96 _061_
*97 _062_
*98 _063_
*99 _064_
*100 _065_
*101 _066_
*102 _067_
*103 _068_
*104 _069_
*105 _070_
*106 _071_
*107 _072_
*108 _073_
*109 _074_
*110 _075_
*111 _076_
*112 _077_
*113 _078_
*114 _079_
*115 _080_
*116 _081_
*117 _082_
*118 _083_
*119 _084_
*120 _085_
*121 _086_
*122 _087_
*123 _088_
*124 _089_
*125 _090_
*126 _091_
*127 _092_
*128 _093_
*129 _094_
*130 _095_
*131 _096_
*132 _097_
*133 _098_
*134 _099_
*135 _100_
*136 _101_
*137 _102_
*138 _103_
*139 _104_
*140 _105_
*141 _106_
*142 _107_
*143 _108_
*144 _109_
*145 _110_
*146 _111_
*147 _112_
*148 _113_
*149 _114_
*150 _115_
*151 _116_
*152 _117_
*153 _118_
*154 _119_
*155 _120_
*156 _121_
*157 _122_
*158 _123_
*159 _124_
*160 _125_
*161 _126_
*162 _127_
*163 _128_
*164 _129_
*165 _130_
*166 _131_
*167 _132_
*168 _133_
*169 _134_
*170 _135_
*171 _136_
*172 _137_
*173 _138_
*174 _139_
*175 _140_
*176 _141_
*177 _142_
*178 _143_
*179 _144_
*180 _145_
*181 _146_
*182 _147_
*183 _148_
*184 _149_
*185 _150_
*186 _151_
*187 _152_
*188 _153_
*189 _154_
*190 _155_
*191 _156_
*192 _157_
*193 _158_
*194 _159_
*195 _160_
*196 _161_
*197 _162_
*198 _163_
*199 _164_
*200 _165_
*201 _166_
*202 _167_
*203 _168_
*204 _169_
*205 _170_
*206 _171_
*207 _172_
*208 _173_
*209 _174_
*210 _175_
*211 _176_
*212 _177_
*213 _178_
*214 _179_
*215 _180_
*216 _181_
*217 _182_
*218 _183_
*219 _184_
*220 _185_
*221 _186_
*222 _187_
*223 _188_
*224 _189_
*225 _190_
*226 _191_
*227 _192_
*228 _193_
*229 _194_
*230 _195_
*231 _196_
*232 _197_
*233 _198_
*234 _199_
*235 _200_
*236 _201_
*237 _202_
*238 _203_
*239 _204_
*240 _205_
*241 _206_
*242 _207_
*243 _208_
*244 _209_
*245 _210_
*246 _211_
*247 _212_
*248 _213_
*249 _214_
*250 _215_
*251 _216_
*252 _217_
*253 _218_
*254 _219_
*255 _220_
*256 _221_
*257 _222_
*258 _223_
*259 _224_
*260 _225_
*261 _226_
*262 _227_
*263 _228_
*264 _229_
*265 _230_
*266 _231_
*267 _232_
*268 _233_
*269 _234_
*270 _235_
*271 _236_
*272 _237_
*273 _238_
*274 _239_
*275 _240_
*276 _241_
*277 _242_
*278 _243_
*279 _244_
*280 _245_
*281 _246_
*282 _247_
*283 _248_
*284 _249_
*285 _250_
*286 _251_
*287 _252_
*288 _253_
*289 _254_
*290 _255_
*291 _256_
*292 _257_
*293 _258_
*294 _259_
*295 _260_
*296 _261_
*297 _262_
*298 _263_
*299 _264_
*300 _265_
*301 _266_
*302 _267_
*303 _268_
*304 _269_
*305 _270_
*306 _271_
*307 _272_
*308 _273_
*309 _274_
*310 _275_
*311 _276_
*312 _277_
*313 _278_
*314 net1
*315 net10
*316 net105
*317 net11
*318 net12
*319 net13
*320 net14
*321 net15
*322 net16
*323 net17
*324 net18
*325 net19
*326 net2
*327 net20
*328 net21
*329 net22
*330 net23
*331 net24
*332 net25
*333 net26
*334 net27
*335 net28
*336 net29
*337 net3
*338 net30
*339 net31
*340 net32
*341 net33
*342 net34
*343 net35
*344 net36
*345 net37
*346 net38
*347 net39
*348 net4
*349 net40
*350 net41
*351 net42
*352 net43
*353 net44
*354 net45
*355 net46
*356 net47
*357 net48
*358 net49
*359 net5
*360 net50
*361 net51
*362 net52
*363 net53
*364 net55
*365 net56
*366 net57
*367 net58
*368 net59
*369 net6
*370 net60
*371 net61
*372 net62
*373 net63
*374 net64
*375 net65
*376 net66
*377 net67
*378 net68
*379 net69
*380 net7
*381 net70
*382 net71
*383 net72
*384 net73
*385 net74
*386 net75
*387 net76
*388 net77
*389 net78
*390 net79
*391 net8
*392 net80
*393 net81
*394 net82
*395 net83
*396 net84
*397 net85
*398 net86
*399 net87
*400 net88
*401 net89
*402 net9
*403 FILLER_0_109
*404 FILLER_0_113
*405 FILLER_0_125
*406 FILLER_0_133
*407 FILLER_0_141
*408 FILLER_0_15
*409 FILLER_0_153
*410 FILLER_0_165
*411 FILLER_0_169
*412 FILLER_0_181
*413 FILLER_0_189
*414 FILLER_0_197
*415 FILLER_0_209
*416 FILLER_0_221
*417 FILLER_0_225
*418 FILLER_0_236
*419 FILLER_0_248
*420 FILLER_0_262
*421 FILLER_0_27
*422 FILLER_0_274
*423 FILLER_0_281
*424 FILLER_0_289
*425 FILLER_0_29
*426 FILLER_0_3
*427 FILLER_0_301
*428 FILLER_0_307
*429 FILLER_0_309
*430 FILLER_0_321
*431 FILLER_0_333
*432 FILLER_0_337
*433 FILLER_0_349
*434 FILLER_0_361
*435 FILLER_0_365
*436 FILLER_0_377
*437 FILLER_0_389
*438 FILLER_0_393
*439 FILLER_0_405
*440 FILLER_0_41
*441 FILLER_0_53
*442 FILLER_0_57
*443 FILLER_0_69
*444 FILLER_0_81
*445 FILLER_0_85
*446 FILLER_0_97
*447 FILLER_10_109
*448 FILLER_10_121
*449 FILLER_10_133
*450 FILLER_10_139
*451 FILLER_10_141
*452 FILLER_10_15
*453 FILLER_10_153
*454 FILLER_10_165
*455 FILLER_10_177
*456 FILLER_10_189
*457 FILLER_10_195
*458 FILLER_10_197
*459 FILLER_10_209
*460 FILLER_10_221
*461 FILLER_10_233
*462 FILLER_10_245
*463 FILLER_10_251
*464 FILLER_10_253
*465 FILLER_10_265
*466 FILLER_10_27
*467 FILLER_10_277
*468 FILLER_10_289
*469 FILLER_10_29
*470 FILLER_10_3
*471 FILLER_10_301
*472 FILLER_10_307
*473 FILLER_10_309
*474 FILLER_10_321
*475 FILLER_10_333
*476 FILLER_10_345
*477 FILLER_10_357
*478 FILLER_10_363
*479 FILLER_10_365
*480 FILLER_10_377
*481 FILLER_10_389
*482 FILLER_10_401
*483 FILLER_10_41
*484 FILLER_10_53
*485 FILLER_10_65
*486 FILLER_10_77
*487 FILLER_10_83
*488 FILLER_10_85
*489 FILLER_10_97
*490 FILLER_11_105
*491 FILLER_11_111
*492 FILLER_11_113
*493 FILLER_11_125
*494 FILLER_11_137
*495 FILLER_11_149
*496 FILLER_11_15
*497 FILLER_11_161
*498 FILLER_11_167
*499 FILLER_11_169
*500 FILLER_11_181
*501 FILLER_11_193
*502 FILLER_11_205
*503 FILLER_11_217
*504 FILLER_11_223
*505 FILLER_11_225
*506 FILLER_11_237
*507 FILLER_11_249
*508 FILLER_11_261
*509 FILLER_11_27
*510 FILLER_11_273
*511 FILLER_11_279
*512 FILLER_11_281
*513 FILLER_11_293
*514 FILLER_11_3
*515 FILLER_11_305
*516 FILLER_11_317
*517 FILLER_11_329
*518 FILLER_11_335
*519 FILLER_11_337
*520 FILLER_11_349
*521 FILLER_11_361
*522 FILLER_11_373
*523 FILLER_11_385
*524 FILLER_11_39
*525 FILLER_11_391
*526 FILLER_11_393
*527 FILLER_11_405
*528 FILLER_11_51
*529 FILLER_11_55
*530 FILLER_11_57
*531 FILLER_11_69
*532 FILLER_11_81
*533 FILLER_11_93
*534 FILLER_12_109
*535 FILLER_12_121
*536 FILLER_12_133
*537 FILLER_12_139
*538 FILLER_12_141
*539 FILLER_12_15
*540 FILLER_12_153
*541 FILLER_12_165
*542 FILLER_12_177
*543 FILLER_12_189
*544 FILLER_12_195
*545 FILLER_12_197
*546 FILLER_12_209
*547 FILLER_12_221
*548 FILLER_12_233
*549 FILLER_12_245
*550 FILLER_12_251
*551 FILLER_12_253
*552 FILLER_12_265
*553 FILLER_12_27
*554 FILLER_12_277
*555 FILLER_12_289
*556 FILLER_12_29
*557 FILLER_12_3
*558 FILLER_12_301
*559 FILLER_12_307
*560 FILLER_12_309
*561 FILLER_12_321
*562 FILLER_12_333
*563 FILLER_12_345
*564 FILLER_12_357
*565 FILLER_12_363
*566 FILLER_12_365
*567 FILLER_12_377
*568 FILLER_12_389
*569 FILLER_12_401
*570 FILLER_12_41
*571 FILLER_12_53
*572 FILLER_12_65
*573 FILLER_12_77
*574 FILLER_12_83
*575 FILLER_12_85
*576 FILLER_12_97
*577 FILLER_13_105
*578 FILLER_13_111
*579 FILLER_13_113
*580 FILLER_13_125
*581 FILLER_13_137
*582 FILLER_13_149
*583 FILLER_13_15
*584 FILLER_13_161
*585 FILLER_13_167
*586 FILLER_13_169
*587 FILLER_13_181
*588 FILLER_13_193
*589 FILLER_13_205
*590 FILLER_13_217
*591 FILLER_13_223
*592 FILLER_13_225
*593 FILLER_13_237
*594 FILLER_13_249
*595 FILLER_13_261
*596 FILLER_13_27
*597 FILLER_13_273
*598 FILLER_13_279
*599 FILLER_13_281
*600 FILLER_13_293
*601 FILLER_13_3
*602 FILLER_13_305
*603 FILLER_13_317
*604 FILLER_13_329
*605 FILLER_13_335
*606 FILLER_13_337
*607 FILLER_13_349
*608 FILLER_13_361
*609 FILLER_13_373
*610 FILLER_13_385
*611 FILLER_13_39
*612 FILLER_13_391
*613 FILLER_13_393
*614 FILLER_13_405
*615 FILLER_13_51
*616 FILLER_13_55
*617 FILLER_13_57
*618 FILLER_13_69
*619 FILLER_13_81
*620 FILLER_13_93
*621 FILLER_14_109
*622 FILLER_14_121
*623 FILLER_14_133
*624 FILLER_14_139
*625 FILLER_14_141
*626 FILLER_14_15
*627 FILLER_14_153
*628 FILLER_14_165
*629 FILLER_14_177
*630 FILLER_14_189
*631 FILLER_14_195
*632 FILLER_14_197
*633 FILLER_14_209
*634 FILLER_14_221
*635 FILLER_14_233
*636 FILLER_14_245
*637 FILLER_14_251
*638 FILLER_14_253
*639 FILLER_14_265
*640 FILLER_14_27
*641 FILLER_14_277
*642 FILLER_14_289
*643 FILLER_14_29
*644 FILLER_14_3
*645 FILLER_14_301
*646 FILLER_14_307
*647 FILLER_14_309
*648 FILLER_14_321
*649 FILLER_14_333
*650 FILLER_14_345
*651 FILLER_14_357
*652 FILLER_14_363
*653 FILLER_14_365
*654 FILLER_14_377
*655 FILLER_14_389
*656 FILLER_14_401
*657 FILLER_14_41
*658 FILLER_14_53
*659 FILLER_14_65
*660 FILLER_14_77
*661 FILLER_14_83
*662 FILLER_14_85
*663 FILLER_14_97
*664 FILLER_15_105
*665 FILLER_15_111
*666 FILLER_15_113
*667 FILLER_15_125
*668 FILLER_15_137
*669 FILLER_15_149
*670 FILLER_15_15
*671 FILLER_15_161
*672 FILLER_15_167
*673 FILLER_15_169
*674 FILLER_15_181
*675 FILLER_15_193
*676 FILLER_15_205
*677 FILLER_15_217
*678 FILLER_15_223
*679 FILLER_15_225
*680 FILLER_15_237
*681 FILLER_15_249
*682 FILLER_15_261
*683 FILLER_15_27
*684 FILLER_15_273
*685 FILLER_15_279
*686 FILLER_15_281
*687 FILLER_15_293
*688 FILLER_15_3
*689 FILLER_15_305
*690 FILLER_15_317
*691 FILLER_15_329
*692 FILLER_15_335
*693 FILLER_15_337
*694 FILLER_15_349
*695 FILLER_15_361
*696 FILLER_15_373
*697 FILLER_15_385
*698 FILLER_15_39
*699 FILLER_15_391
*700 FILLER_15_393
*701 FILLER_15_405
*702 FILLER_15_51
*703 FILLER_15_55
*704 FILLER_15_57
*705 FILLER_15_69
*706 FILLER_15_81
*707 FILLER_15_93
*708 FILLER_16_109
*709 FILLER_16_121
*710 FILLER_16_133
*711 FILLER_16_139
*712 FILLER_16_141
*713 FILLER_16_15
*714 FILLER_16_153
*715 FILLER_16_165
*716 FILLER_16_177
*717 FILLER_16_189
*718 FILLER_16_195
*719 FILLER_16_197
*720 FILLER_16_209
*721 FILLER_16_221
*722 FILLER_16_233
*723 FILLER_16_245
*724 FILLER_16_251
*725 FILLER_16_253
*726 FILLER_16_265
*727 FILLER_16_27
*728 FILLER_16_277
*729 FILLER_16_289
*730 FILLER_16_29
*731 FILLER_16_3
*732 FILLER_16_301
*733 FILLER_16_307
*734 FILLER_16_309
*735 FILLER_16_321
*736 FILLER_16_333
*737 FILLER_16_345
*738 FILLER_16_357
*739 FILLER_16_363
*740 FILLER_16_365
*741 FILLER_16_377
*742 FILLER_16_389
*743 FILLER_16_401
*744 FILLER_16_41
*745 FILLER_16_53
*746 FILLER_16_65
*747 FILLER_16_77
*748 FILLER_16_83
*749 FILLER_16_85
*750 FILLER_16_97
*751 FILLER_17_105
*752 FILLER_17_111
*753 FILLER_17_113
*754 FILLER_17_125
*755 FILLER_17_137
*756 FILLER_17_149
*757 FILLER_17_161
*758 FILLER_17_167
*759 FILLER_17_169
*760 FILLER_17_177
*761 FILLER_17_189
*762 FILLER_17_19
*763 FILLER_17_196
*764 FILLER_17_208
*765 FILLER_17_216
*766 FILLER_17_225
*767 FILLER_17_237
*768 FILLER_17_249
*769 FILLER_17_261
*770 FILLER_17_273
*771 FILLER_17_279
*772 FILLER_17_281
*773 FILLER_17_293
*774 FILLER_17_305
*775 FILLER_17_31
*776 FILLER_17_317
*777 FILLER_17_329
*778 FILLER_17_335
*779 FILLER_17_337
*780 FILLER_17_349
*781 FILLER_17_361
*782 FILLER_17_373
*783 FILLER_17_385
*784 FILLER_17_391
*785 FILLER_17_393
*786 FILLER_17_405
*787 FILLER_17_43
*788 FILLER_17_55
*789 FILLER_17_57
*790 FILLER_17_69
*791 FILLER_17_7
*792 FILLER_17_81
*793 FILLER_17_93
*794 FILLER_18_109
*795 FILLER_18_118
*796 FILLER_18_130
*797 FILLER_18_138
*798 FILLER_18_141
*799 FILLER_18_15
*800 FILLER_18_153
*801 FILLER_18_192
*802 FILLER_18_210
*803 FILLER_18_222
*804 FILLER_18_234
*805 FILLER_18_246
*806 FILLER_18_253
*807 FILLER_18_265
*808 FILLER_18_27
*809 FILLER_18_277
*810 FILLER_18_289
*811 FILLER_18_29
*812 FILLER_18_3
*813 FILLER_18_301
*814 FILLER_18_307
*815 FILLER_18_309
*816 FILLER_18_321
*817 FILLER_18_333
*818 FILLER_18_345
*819 FILLER_18_357
*820 FILLER_18_363
*821 FILLER_18_365
*822 FILLER_18_377
*823 FILLER_18_389
*824 FILLER_18_401
*825 FILLER_18_41
*826 FILLER_18_53
*827 FILLER_18_65
*828 FILLER_18_77
*829 FILLER_18_83
*830 FILLER_18_85
*831 FILLER_18_97
*832 FILLER_19_105
*833 FILLER_19_111
*834 FILLER_19_135
*835 FILLER_19_147
*836 FILLER_19_15
*837 FILLER_19_159
*838 FILLER_19_167
*839 FILLER_19_174
*840 FILLER_19_186
*841 FILLER_19_198
*842 FILLER_19_210
*843 FILLER_19_222
*844 FILLER_19_225
*845 FILLER_19_244
*846 FILLER_19_256
*847 FILLER_19_268
*848 FILLER_19_27
*849 FILLER_19_281
*850 FILLER_19_293
*851 FILLER_19_3
*852 FILLER_19_305
*853 FILLER_19_317
*854 FILLER_19_329
*855 FILLER_19_335
*856 FILLER_19_337
*857 FILLER_19_349
*858 FILLER_19_361
*859 FILLER_19_373
*860 FILLER_19_385
*861 FILLER_19_39
*862 FILLER_19_391
*863 FILLER_19_393
*864 FILLER_19_405
*865 FILLER_19_51
*866 FILLER_19_55
*867 FILLER_19_57
*868 FILLER_19_69
*869 FILLER_19_81
*870 FILLER_19_93
*871 FILLER_1_105
*872 FILLER_1_111
*873 FILLER_1_113
*874 FILLER_1_125
*875 FILLER_1_137
*876 FILLER_1_149
*877 FILLER_1_15
*878 FILLER_1_161
*879 FILLER_1_167
*880 FILLER_1_169
*881 FILLER_1_181
*882 FILLER_1_193
*883 FILLER_1_205
*884 FILLER_1_217
*885 FILLER_1_223
*886 FILLER_1_225
*887 FILLER_1_237
*888 FILLER_1_249
*889 FILLER_1_261
*890 FILLER_1_27
*891 FILLER_1_273
*892 FILLER_1_279
*893 FILLER_1_281
*894 FILLER_1_293
*895 FILLER_1_3
*896 FILLER_1_305
*897 FILLER_1_317
*898 FILLER_1_329
*899 FILLER_1_335
*900 FILLER_1_337
*901 FILLER_1_349
*902 FILLER_1_361
*903 FILLER_1_373
*904 FILLER_1_385
*905 FILLER_1_39
*906 FILLER_1_391
*907 FILLER_1_393
*908 FILLER_1_405
*909 FILLER_1_51
*910 FILLER_1_55
*911 FILLER_1_57
*912 FILLER_1_69
*913 FILLER_1_81
*914 FILLER_1_93
*915 FILLER_20_109
*916 FILLER_20_121
*917 FILLER_20_133
*918 FILLER_20_139
*919 FILLER_20_141
*920 FILLER_20_15
*921 FILLER_20_153
*922 FILLER_20_165
*923 FILLER_20_177
*924 FILLER_20_189
*925 FILLER_20_195
*926 FILLER_20_197
*927 FILLER_20_209
*928 FILLER_20_221
*929 FILLER_20_233
*930 FILLER_20_245
*931 FILLER_20_251
*932 FILLER_20_253
*933 FILLER_20_265
*934 FILLER_20_27
*935 FILLER_20_277
*936 FILLER_20_289
*937 FILLER_20_29
*938 FILLER_20_3
*939 FILLER_20_301
*940 FILLER_20_307
*941 FILLER_20_309
*942 FILLER_20_321
*943 FILLER_20_333
*944 FILLER_20_345
*945 FILLER_20_357
*946 FILLER_20_363
*947 FILLER_20_365
*948 FILLER_20_377
*949 FILLER_20_389
*950 FILLER_20_401
*951 FILLER_20_41
*952 FILLER_20_53
*953 FILLER_20_65
*954 FILLER_20_77
*955 FILLER_20_83
*956 FILLER_20_85
*957 FILLER_20_97
*958 FILLER_21_107
*959 FILLER_21_111
*960 FILLER_21_113
*961 FILLER_21_125
*962 FILLER_21_137
*963 FILLER_21_149
*964 FILLER_21_15
*965 FILLER_21_161
*966 FILLER_21_167
*967 FILLER_21_169
*968 FILLER_21_181
*969 FILLER_21_191
*970 FILLER_21_203
*971 FILLER_21_215
*972 FILLER_21_223
*973 FILLER_21_225
*974 FILLER_21_237
*975 FILLER_21_249
*976 FILLER_21_261
*977 FILLER_21_27
*978 FILLER_21_273
*979 FILLER_21_279
*980 FILLER_21_281
*981 FILLER_21_293
*982 FILLER_21_3
*983 FILLER_21_305
*984 FILLER_21_317
*985 FILLER_21_329
*986 FILLER_21_335
*987 FILLER_21_337
*988 FILLER_21_349
*989 FILLER_21_361
*990 FILLER_21_373
*991 FILLER_21_385
*992 FILLER_21_39
*993 FILLER_21_391
*994 FILLER_21_393
*995 FILLER_21_51
*996 FILLER_21_55
*997 FILLER_21_57
*998 FILLER_21_69
*999 FILLER_21_81
*1000 FILLER_22_102
*1001 FILLER_22_11
*1002 FILLER_22_114
*1003 FILLER_22_122
*1004 FILLER_22_137
*1005 FILLER_22_141
*1006 FILLER_22_153
*1007 FILLER_22_165
*1008 FILLER_22_177
*1009 FILLER_22_181
*1010 FILLER_22_189
*1011 FILLER_22_195
*1012 FILLER_22_197
*1013 FILLER_22_20
*1014 FILLER_22_209
*1015 FILLER_22_233
*1016 FILLER_22_245
*1017 FILLER_22_251
*1018 FILLER_22_253
*1019 FILLER_22_261
*1020 FILLER_22_269
*1021 FILLER_22_281
*1022 FILLER_22_29
*1023 FILLER_22_293
*1024 FILLER_22_3
*1025 FILLER_22_305
*1026 FILLER_22_309
*1027 FILLER_22_321
*1028 FILLER_22_333
*1029 FILLER_22_345
*1030 FILLER_22_357
*1031 FILLER_22_363
*1032 FILLER_22_365
*1033 FILLER_22_377
*1034 FILLER_22_389
*1035 FILLER_22_401
*1036 FILLER_22_41
*1037 FILLER_22_53
*1038 FILLER_22_65
*1039 FILLER_22_77
*1040 FILLER_22_83
*1041 FILLER_22_94
*1042 FILLER_23_109
*1043 FILLER_23_113
*1044 FILLER_23_125
*1045 FILLER_23_137
*1046 FILLER_23_149
*1047 FILLER_23_15
*1048 FILLER_23_161
*1049 FILLER_23_167
*1050 FILLER_23_169
*1051 FILLER_23_181
*1052 FILLER_23_196
*1053 FILLER_23_208
*1054 FILLER_23_21
*1055 FILLER_23_214
*1056 FILLER_23_221
*1057 FILLER_23_230
*1058 FILLER_23_242
*1059 FILLER_23_254
*1060 FILLER_23_259
*1061 FILLER_23_27
*1062 FILLER_23_271
*1063 FILLER_23_279
*1064 FILLER_23_281
*1065 FILLER_23_293
*1066 FILLER_23_3
*1067 FILLER_23_305
*1068 FILLER_23_317
*1069 FILLER_23_329
*1070 FILLER_23_335
*1071 FILLER_23_337
*1072 FILLER_23_349
*1073 FILLER_23_361
*1074 FILLER_23_373
*1075 FILLER_23_385
*1076 FILLER_23_39
*1077 FILLER_23_391
*1078 FILLER_23_393
*1079 FILLER_23_405
*1080 FILLER_23_51
*1081 FILLER_23_55
*1082 FILLER_23_57
*1083 FILLER_23_61
*1084 FILLER_23_71
*1085 FILLER_23_83
*1086 FILLER_23_98
*1087 FILLER_24_109
*1088 FILLER_24_117
*1089 FILLER_24_129
*1090 FILLER_24_137
*1091 FILLER_24_141
*1092 FILLER_24_15
*1093 FILLER_24_153
*1094 FILLER_24_165
*1095 FILLER_24_177
*1096 FILLER_24_189
*1097 FILLER_24_195
*1098 FILLER_24_197
*1099 FILLER_24_209
*1100 FILLER_24_213
*1101 FILLER_24_218
*1102 FILLER_24_222
*1103 FILLER_24_226
*1104 FILLER_24_238
*1105 FILLER_24_250
*1106 FILLER_24_260
*1107 FILLER_24_27
*1108 FILLER_24_270
*1109 FILLER_24_282
*1110 FILLER_24_29
*1111 FILLER_24_294
*1112 FILLER_24_298
*1113 FILLER_24_3
*1114 FILLER_24_306
*1115 FILLER_24_309
*1116 FILLER_24_321
*1117 FILLER_24_33
*1118 FILLER_24_333
*1119 FILLER_24_345
*1120 FILLER_24_357
*1121 FILLER_24_363
*1122 FILLER_24_365
*1123 FILLER_24_377
*1124 FILLER_24_389
*1125 FILLER_24_401
*1126 FILLER_24_43
*1127 FILLER_24_76
*1128 FILLER_24_85
*1129 FILLER_24_97
*1130 FILLER_25_106
*1131 FILLER_25_113
*1132 FILLER_25_121
*1133 FILLER_25_133
*1134 FILLER_25_141
*1135 FILLER_25_15
*1136 FILLER_25_164
*1137 FILLER_25_172
*1138 FILLER_25_184
*1139 FILLER_25_196
*1140 FILLER_25_208
*1141 FILLER_25_220
*1142 FILLER_25_225
*1143 FILLER_25_237
*1144 FILLER_25_249
*1145 FILLER_25_261
*1146 FILLER_25_27
*1147 FILLER_25_273
*1148 FILLER_25_279
*1149 FILLER_25_281
*1150 FILLER_25_293
*1151 FILLER_25_3
*1152 FILLER_25_305
*1153 FILLER_25_317
*1154 FILLER_25_329
*1155 FILLER_25_335
*1156 FILLER_25_337
*1157 FILLER_25_349
*1158 FILLER_25_361
*1159 FILLER_25_373
*1160 FILLER_25_385
*1161 FILLER_25_39
*1162 FILLER_25_391
*1163 FILLER_25_393
*1164 FILLER_25_397
*1165 FILLER_25_47
*1166 FILLER_25_75
*1167 FILLER_25_87
*1168 FILLER_25_99
*1169 FILLER_26_105
*1170 FILLER_26_120
*1171 FILLER_26_132
*1172 FILLER_26_141
*1173 FILLER_26_153
*1174 FILLER_26_159
*1175 FILLER_26_172
*1176 FILLER_26_184
*1177 FILLER_26_207
*1178 FILLER_26_219
*1179 FILLER_26_231
*1180 FILLER_26_243
*1181 FILLER_26_251
*1182 FILLER_26_253
*1183 FILLER_26_265
*1184 FILLER_26_27
*1185 FILLER_26_277
*1186 FILLER_26_289
*1187 FILLER_26_3
*1188 FILLER_26_301
*1189 FILLER_26_307
*1190 FILLER_26_316
*1191 FILLER_26_328
*1192 FILLER_26_340
*1193 FILLER_26_352
*1194 FILLER_26_36
*1195 FILLER_26_365
*1196 FILLER_26_377
*1197 FILLER_26_389
*1198 FILLER_26_401
*1199 FILLER_26_48
*1200 FILLER_26_68
*1201 FILLER_26_80
*1202 FILLER_26_85
*1203 FILLER_26_97
*1204 FILLER_27_108
*1205 FILLER_27_113
*1206 FILLER_27_125
*1207 FILLER_27_137
*1208 FILLER_27_149
*1209 FILLER_27_155
*1210 FILLER_27_160
*1211 FILLER_27_169
*1212 FILLER_27_181
*1213 FILLER_27_189
*1214 FILLER_27_195
*1215 FILLER_27_207
*1216 FILLER_27_219
*1217 FILLER_27_223
*1218 FILLER_27_225
*1219 FILLER_27_237
*1220 FILLER_27_245
*1221 FILLER_27_254
*1222 FILLER_27_266
*1223 FILLER_27_278
*1224 FILLER_27_281
*1225 FILLER_27_293
*1226 FILLER_27_297
*1227 FILLER_27_302
*1228 FILLER_27_314
*1229 FILLER_27_326
*1230 FILLER_27_334
*1231 FILLER_27_337
*1232 FILLER_27_349
*1233 FILLER_27_361
*1234 FILLER_27_373
*1235 FILLER_27_38
*1236 FILLER_27_385
*1237 FILLER_27_391
*1238 FILLER_27_393
*1239 FILLER_27_401
*1240 FILLER_27_50
*1241 FILLER_27_57
*1242 FILLER_27_67
*1243 FILLER_27_7
*1244 FILLER_27_75
*1245 FILLER_27_84
*1246 FILLER_27_96
*1247 FILLER_28_109
*1248 FILLER_28_121
*1249 FILLER_28_133
*1250 FILLER_28_139
*1251 FILLER_28_141
*1252 FILLER_28_147
*1253 FILLER_28_161
*1254 FILLER_28_173
*1255 FILLER_28_185
*1256 FILLER_28_193
*1257 FILLER_28_197
*1258 FILLER_28_209
*1259 FILLER_28_221
*1260 FILLER_28_233
*1261 FILLER_28_245
*1262 FILLER_28_251
*1263 FILLER_28_253
*1264 FILLER_28_260
*1265 FILLER_28_272
*1266 FILLER_28_284
*1267 FILLER_28_288
*1268 FILLER_28_3
*1269 FILLER_28_302
*1270 FILLER_28_309
*1271 FILLER_28_321
*1272 FILLER_28_333
*1273 FILLER_28_345
*1274 FILLER_28_357
*1275 FILLER_28_363
*1276 FILLER_28_365
*1277 FILLER_28_377
*1278 FILLER_28_389
*1279 FILLER_28_401
*1280 FILLER_28_46
*1281 FILLER_28_58
*1282 FILLER_28_70
*1283 FILLER_28_82
*1284 FILLER_28_85
*1285 FILLER_28_97
*1286 FILLER_29_106
*1287 FILLER_29_113
*1288 FILLER_29_12
*1289 FILLER_29_125
*1290 FILLER_29_137
*1291 FILLER_29_160
*1292 FILLER_29_169
*1293 FILLER_29_181
*1294 FILLER_29_193
*1295 FILLER_29_198
*1296 FILLER_29_210
*1297 FILLER_29_222
*1298 FILLER_29_225
*1299 FILLER_29_237
*1300 FILLER_29_250
*1301 FILLER_29_256
*1302 FILLER_29_268
*1303 FILLER_29_289
*1304 FILLER_29_307
*1305 FILLER_29_319
*1306 FILLER_29_331
*1307 FILLER_29_335
*1308 FILLER_29_337
*1309 FILLER_29_349
*1310 FILLER_29_361
*1311 FILLER_29_373
*1312 FILLER_29_385
*1313 FILLER_29_391
*1314 FILLER_29_393
*1315 FILLER_29_40
*1316 FILLER_29_405
*1317 FILLER_29_53
*1318 FILLER_29_70
*1319 FILLER_29_82
*1320 FILLER_29_94
*1321 FILLER_2_109
*1322 FILLER_2_121
*1323 FILLER_2_133
*1324 FILLER_2_139
*1325 FILLER_2_141
*1326 FILLER_2_15
*1327 FILLER_2_153
*1328 FILLER_2_165
*1329 FILLER_2_177
*1330 FILLER_2_189
*1331 FILLER_2_195
*1332 FILLER_2_197
*1333 FILLER_2_209
*1334 FILLER_2_221
*1335 FILLER_2_233
*1336 FILLER_2_245
*1337 FILLER_2_251
*1338 FILLER_2_253
*1339 FILLER_2_265
*1340 FILLER_2_27
*1341 FILLER_2_277
*1342 FILLER_2_289
*1343 FILLER_2_29
*1344 FILLER_2_3
*1345 FILLER_2_301
*1346 FILLER_2_307
*1347 FILLER_2_309
*1348 FILLER_2_321
*1349 FILLER_2_333
*1350 FILLER_2_345
*1351 FILLER_2_357
*1352 FILLER_2_363
*1353 FILLER_2_365
*1354 FILLER_2_377
*1355 FILLER_2_389
*1356 FILLER_2_401
*1357 FILLER_2_41
*1358 FILLER_2_53
*1359 FILLER_2_65
*1360 FILLER_2_77
*1361 FILLER_2_83
*1362 FILLER_2_85
*1363 FILLER_2_97
*1364 FILLER_30_114
*1365 FILLER_30_118
*1366 FILLER_30_124
*1367 FILLER_30_136
*1368 FILLER_30_141
*1369 FILLER_30_153
*1370 FILLER_30_165
*1371 FILLER_30_177
*1372 FILLER_30_206
*1373 FILLER_30_218
*1374 FILLER_30_230
*1375 FILLER_30_242
*1376 FILLER_30_250
*1377 FILLER_30_253
*1378 FILLER_30_265
*1379 FILLER_30_277
*1380 FILLER_30_289
*1381 FILLER_30_309
*1382 FILLER_30_321
*1383 FILLER_30_333
*1384 FILLER_30_345
*1385 FILLER_30_357
*1386 FILLER_30_363
*1387 FILLER_30_365
*1388 FILLER_30_377
*1389 FILLER_30_389
*1390 FILLER_30_401
*1391 FILLER_30_43
*1392 FILLER_30_79
*1393 FILLER_30_83
*1394 FILLER_30_85
*1395 FILLER_30_97
*1396 FILLER_31_108
*1397 FILLER_31_113
*1398 FILLER_31_125
*1399 FILLER_31_137
*1400 FILLER_31_149
*1401 FILLER_31_161
*1402 FILLER_31_167
*1403 FILLER_31_174
*1404 FILLER_31_189
*1405 FILLER_31_211
*1406 FILLER_31_223
*1407 FILLER_31_225
*1408 FILLER_31_233
*1409 FILLER_31_243
*1410 FILLER_31_255
*1411 FILLER_31_267
*1412 FILLER_31_279
*1413 FILLER_31_281
*1414 FILLER_31_293
*1415 FILLER_31_298
*1416 FILLER_31_306
*1417 FILLER_31_318
*1418 FILLER_31_330
*1419 FILLER_31_337
*1420 FILLER_31_349
*1421 FILLER_31_35
*1422 FILLER_31_361
*1423 FILLER_31_373
*1424 FILLER_31_385
*1425 FILLER_31_391
*1426 FILLER_31_393
*1427 FILLER_31_405
*1428 FILLER_31_41
*1429 FILLER_31_6
*1430 FILLER_31_76
*1431 FILLER_31_88
*1432 FILLER_32_124
*1433 FILLER_32_13
*1434 FILLER_32_136
*1435 FILLER_32_141
*1436 FILLER_32_153
*1437 FILLER_32_165
*1438 FILLER_32_169
*1439 FILLER_32_177
*1440 FILLER_32_185
*1441 FILLER_32_194
*1442 FILLER_32_197
*1443 FILLER_32_208
*1444 FILLER_32_220
*1445 FILLER_32_232
*1446 FILLER_32_240
*1447 FILLER_32_244
*1448 FILLER_32_253
*1449 FILLER_32_265
*1450 FILLER_32_277
*1451 FILLER_32_289
*1452 FILLER_32_295
*1453 FILLER_32_307
*1454 FILLER_32_309
*1455 FILLER_32_321
*1456 FILLER_32_333
*1457 FILLER_32_345
*1458 FILLER_32_357
*1459 FILLER_32_363
*1460 FILLER_32_365
*1461 FILLER_32_377
*1462 FILLER_32_389
*1463 FILLER_32_39
*1464 FILLER_32_401
*1465 FILLER_32_45
*1466 FILLER_32_73
*1467 FILLER_32_81
*1468 FILLER_32_85
*1469 FILLER_32_97
*1470 FILLER_33_111
*1471 FILLER_33_120
*1472 FILLER_33_132
*1473 FILLER_33_144
*1474 FILLER_33_15
*1475 FILLER_33_156
*1476 FILLER_33_169
*1477 FILLER_33_181
*1478 FILLER_33_193
*1479 FILLER_33_205
*1480 FILLER_33_21
*1481 FILLER_33_217
*1482 FILLER_33_223
*1483 FILLER_33_225
*1484 FILLER_33_237
*1485 FILLER_33_249
*1486 FILLER_33_261
*1487 FILLER_33_273
*1488 FILLER_33_279
*1489 FILLER_33_281
*1490 FILLER_33_289
*1491 FILLER_33_29
*1492 FILLER_33_297
*1493 FILLER_33_3
*1494 FILLER_33_309
*1495 FILLER_33_321
*1496 FILLER_33_333
*1497 FILLER_33_337
*1498 FILLER_33_349
*1499 FILLER_33_361
*1500 FILLER_33_373
*1501 FILLER_33_385
*1502 FILLER_33_391
*1503 FILLER_33_393
*1504 FILLER_33_405
*1505 FILLER_33_41
*1506 FILLER_33_49
*1507 FILLER_33_55
*1508 FILLER_33_57
*1509 FILLER_33_71
*1510 FILLER_33_83
*1511 FILLER_33_95
*1512 FILLER_34_116
*1513 FILLER_34_13
*1514 FILLER_34_131
*1515 FILLER_34_139
*1516 FILLER_34_141
*1517 FILLER_34_153
*1518 FILLER_34_165
*1519 FILLER_34_177
*1520 FILLER_34_189
*1521 FILLER_34_195
*1522 FILLER_34_197
*1523 FILLER_34_209
*1524 FILLER_34_21
*1525 FILLER_34_221
*1526 FILLER_34_229
*1527 FILLER_34_238
*1528 FILLER_34_246
*1529 FILLER_34_257
*1530 FILLER_34_263
*1531 FILLER_34_27
*1532 FILLER_34_293
*1533 FILLER_34_305
*1534 FILLER_34_309
*1535 FILLER_34_321
*1536 FILLER_34_33
*1537 FILLER_34_333
*1538 FILLER_34_345
*1539 FILLER_34_357
*1540 FILLER_34_363
*1541 FILLER_34_365
*1542 FILLER_34_377
*1543 FILLER_34_389
*1544 FILLER_34_401
*1545 FILLER_34_45
*1546 FILLER_34_57
*1547 FILLER_34_74
*1548 FILLER_34_82
*1549 FILLER_34_85
*1550 FILLER_34_97
*1551 FILLER_35_101
*1552 FILLER_35_109
*1553 FILLER_35_113
*1554 FILLER_35_125
*1555 FILLER_35_137
*1556 FILLER_35_149
*1557 FILLER_35_156
*1558 FILLER_35_169
*1559 FILLER_35_181
*1560 FILLER_35_19
*1561 FILLER_35_193
*1562 FILLER_35_205
*1563 FILLER_35_217
*1564 FILLER_35_223
*1565 FILLER_35_232
*1566 FILLER_35_244
*1567 FILLER_35_256
*1568 FILLER_35_268
*1569 FILLER_35_281
*1570 FILLER_35_292
*1571 FILLER_35_304
*1572 FILLER_35_31
*1573 FILLER_35_316
*1574 FILLER_35_328
*1575 FILLER_35_337
*1576 FILLER_35_349
*1577 FILLER_35_361
*1578 FILLER_35_373
*1579 FILLER_35_385
*1580 FILLER_35_391
*1581 FILLER_35_393
*1582 FILLER_35_405
*1583 FILLER_35_43
*1584 FILLER_35_55
*1585 FILLER_35_57
*1586 FILLER_35_69
*1587 FILLER_35_7
*1588 FILLER_35_81
*1589 FILLER_35_93
*1590 FILLER_36_109
*1591 FILLER_36_121
*1592 FILLER_36_133
*1593 FILLER_36_139
*1594 FILLER_36_15
*1595 FILLER_36_154
*1596 FILLER_36_166
*1597 FILLER_36_178
*1598 FILLER_36_19
*1599 FILLER_36_190
*1600 FILLER_36_197
*1601 FILLER_36_211
*1602 FILLER_36_231
*1603 FILLER_36_243
*1604 FILLER_36_25
*1605 FILLER_36_251
*1606 FILLER_36_253
*1607 FILLER_36_265
*1608 FILLER_36_277
*1609 FILLER_36_29
*1610 FILLER_36_293
*1611 FILLER_36_3
*1612 FILLER_36_305
*1613 FILLER_36_309
*1614 FILLER_36_321
*1615 FILLER_36_333
*1616 FILLER_36_345
*1617 FILLER_36_357
*1618 FILLER_36_363
*1619 FILLER_36_365
*1620 FILLER_36_377
*1621 FILLER_36_389
*1622 FILLER_36_401
*1623 FILLER_36_41
*1624 FILLER_36_53
*1625 FILLER_36_65
*1626 FILLER_36_76
*1627 FILLER_36_85
*1628 FILLER_36_97
*1629 FILLER_37_105
*1630 FILLER_37_111
*1631 FILLER_37_113
*1632 FILLER_37_125
*1633 FILLER_37_137
*1634 FILLER_37_15
*1635 FILLER_37_156
*1636 FILLER_37_169
*1637 FILLER_37_181
*1638 FILLER_37_189
*1639 FILLER_37_198
*1640 FILLER_37_210
*1641 FILLER_37_222
*1642 FILLER_37_225
*1643 FILLER_37_237
*1644 FILLER_37_249
*1645 FILLER_37_261
*1646 FILLER_37_27
*1647 FILLER_37_273
*1648 FILLER_37_279
*1649 FILLER_37_281
*1650 FILLER_37_292
*1651 FILLER_37_3
*1652 FILLER_37_304
*1653 FILLER_37_316
*1654 FILLER_37_328
*1655 FILLER_37_337
*1656 FILLER_37_349
*1657 FILLER_37_361
*1658 FILLER_37_373
*1659 FILLER_37_385
*1660 FILLER_37_39
*1661 FILLER_37_391
*1662 FILLER_37_393
*1663 FILLER_37_405
*1664 FILLER_37_51
*1665 FILLER_37_55
*1666 FILLER_37_57
*1667 FILLER_37_81
*1668 FILLER_37_93
*1669 FILLER_38_109
*1670 FILLER_38_121
*1671 FILLER_38_133
*1672 FILLER_38_139
*1673 FILLER_38_141
*1674 FILLER_38_15
*1675 FILLER_38_160
*1676 FILLER_38_164
*1677 FILLER_38_170
*1678 FILLER_38_182
*1679 FILLER_38_188
*1680 FILLER_38_194
*1681 FILLER_38_197
*1682 FILLER_38_209
*1683 FILLER_38_221
*1684 FILLER_38_233
*1685 FILLER_38_245
*1686 FILLER_38_251
*1687 FILLER_38_253
*1688 FILLER_38_260
*1689 FILLER_38_27
*1690 FILLER_38_272
*1691 FILLER_38_284
*1692 FILLER_38_29
*1693 FILLER_38_291
*1694 FILLER_38_3
*1695 FILLER_38_303
*1696 FILLER_38_307
*1697 FILLER_38_309
*1698 FILLER_38_321
*1699 FILLER_38_333
*1700 FILLER_38_345
*1701 FILLER_38_357
*1702 FILLER_38_363
*1703 FILLER_38_365
*1704 FILLER_38_377
*1705 FILLER_38_389
*1706 FILLER_38_401
*1707 FILLER_38_41
*1708 FILLER_38_53
*1709 FILLER_38_59
*1710 FILLER_38_70
*1711 FILLER_38_82
*1712 FILLER_38_85
*1713 FILLER_38_97
*1714 FILLER_39_105
*1715 FILLER_39_111
*1716 FILLER_39_113
*1717 FILLER_39_121
*1718 FILLER_39_134
*1719 FILLER_39_146
*1720 FILLER_39_15
*1721 FILLER_39_157
*1722 FILLER_39_165
*1723 FILLER_39_169