*SPEF "ieee 1481-1999"
*DESIGN "e9_SARSA_nSteps_INDEPENDIENTES"
*DATE "14:20:04 Tuesday September 16, 2025"
*VENDOR "The OpenROAD Project"
*PROGRAM "OpenROAD"
*VERSION "edf00dff99f6c40d67a30c0e22a8191c5d2ed9d6"
*DESIGN_FLOW "NAME_SCOPE LOCAL" "PIN_CAP NONE"
*DIVIDER /
*DELIMITER :
*BUS_DELIMITER []
*T_UNIT 1 NS
*C_UNIT 1 PF
*R_UNIT 1 OHM
*L_UNIT 1 HENRY

*NAME_MAP
*1 A[0]
*2 A[1]
*3 B[0]
*4 B[1]
*5 P[0]
*6 P[1]
*7 P[2]
*8 net7
*11 net1
*12 net2
*13 net3
*14 net4
*15 net5
*16 net6
*17 pp0
*18 pp2
*19 FILLER_0_15
*20 FILLER_0_27
*21 FILLER_0_29
*22 FILLER_0_3
*23 FILLER_0_41
*24 FILLER_0_53
*25 FILLER_0_57
*26 FILLER_0_69
*27 FILLER_1_15
*28 FILLER_1_27
*29 FILLER_1_3
*30 FILLER_1_39
*31 FILLER_1_51
*32 FILLER_1_55
*33 FILLER_1_57
*34 FILLER_1_69
*35 FILLER_2_15
*36 FILLER_2_27
*37 FILLER_2_29
*38 FILLER_2_3
*39 FILLER_2_41
*40 FILLER_2_53
*41 FILLER_2_65
*42 FILLER_2_77
*43 FILLER_3_15
*44 FILLER_3_27
*45 FILLER_3_3
*46 FILLER_3_39
*47 FILLER_3_51
*48 FILLER_3_55
*49 FILLER_3_57
*50 FILLER_3_65
*51 FILLER_3_70
*52 FILLER_3_78
*53 FILLER_4_18
*54 FILLER_4_26
*55 FILLER_4_29
*56 FILLER_4_41
*57 FILLER_4_53
*58 FILLER_4_6
*59 FILLER_4_61
*60 FILLER_4_70
*61 FILLER_4_76
*62 FILLER_5_17
*63 FILLER_5_29
*64 FILLER_5_41
*65 FILLER_5_53
*66 FILLER_5_57
*67 FILLER_5_6
*68 FILLER_5_69
*69 FILLER_6_18
*70 FILLER_6_23
*71 FILLER_6_27
*72 FILLER_6_29
*73 FILLER_6_41
*74 FILLER_6_53
*75 FILLER_6_6
*76 FILLER_6_65
*77 FILLER_6_77
*78 FILLER_7_15
*79 FILLER_7_27
*80 FILLER_7_3
*81 FILLER_7_39
*82 FILLER_7_51
*83 FILLER_7_55
*84 FILLER_7_57
*85 FILLER_7_69
*86 FILLER_8_15
*87 FILLER_8_27
*88 FILLER_8_29
*89 FILLER_8_3
*90 FILLER_8_41
*91 FILLER_8_53
*92 FILLER_8_65
*93 FILLER_8_77
*94 FILLER_9_15
*95 FILLER_9_27
*96 FILLER_9_29
*97 FILLER_9_3
*98 FILLER_9_41
*99 FILLER_9_53
*100 FILLER_9_57
*101 FILLER_9_69
*102 PHY_EDGE_ROW_0_Left_10
*103 PHY_EDGE_ROW_0_Right_0
*104 PHY_EDGE_ROW_1_Left_11
*105 PHY_EDGE_ROW_1_Right_1
*106 PHY_EDGE_ROW_2_Left_12
*107 PHY_EDGE_ROW_2_Right_2
*108 PHY_EDGE_ROW_3_Left_13
*109 PHY_EDGE_ROW_3_Right_3
*110 PHY_EDGE_ROW_4_Left_14
*111 PHY_EDGE_ROW_4_Right_4
*112 PHY_EDGE_ROW_5_Left_15
*113 PHY_EDGE_ROW_5_Right_5
*114 PHY_EDGE_ROW_6_Left_16
*115 PHY_EDGE_ROW_6_Right_6
*116 PHY_EDGE_ROW_7_Left_17
*117 PHY_EDGE_ROW_7_Right_7
*118 PHY_EDGE_ROW_8_Left_18
*119 PHY_EDGE_ROW_8_Right_8
*120 PHY_EDGE_ROW_9_Left_19
*121 PHY_EDGE_ROW_9_Right_9
*122 TAP_TAPCELL_ROW_0_20
*123 TAP_TAPCELL_ROW_0_21
*124 TAP_TAPCELL_ROW_1_22
*125 TAP_TAPCELL_ROW_2_23
*126 TAP_TAPCELL_ROW_3_24
*127 TAP_TAPCELL_ROW_4_25
*128 TAP_TAPCELL_ROW_5_26
*129 TAP_TAPCELL_ROW_6_27
*130 TAP_TAPCELL_ROW_7_28
*131 TAP_TAPCELL_ROW_8_29
*132 TAP_TAPCELL_ROW_9_30
*133 TAP_TAPCELL_ROW_9_31
*134 _0_
*135 _1_
*136 _3_
*137 _4_
*138 _5_
*139 e9_SARSA_nSteps_INDEPENDIENTES_7
*140 input1
*141 input2
*142 input3
*143 output4
*144 output5
*145 output6

*PORTS
A[0] I
A[1] I
B[0] I
B[1] I
P[0] O
P[1] O
P[2] O
P[3] O

*D_NET *2 0.000733319
*CONN
*P A[1] I
*I *140:A I *D sky130_fd_sc_hd__clkbuf_1
*CAP
1 A[1] 0.000352215
2 *140:A 0
3 *2:17 0.000352215
4 *2:17 *4:17 2.88889e-05
*RES
1 A[1] *2:17 28.2148 
2 *2:17 *140:A 23 
*END

*D_NET *3 0.00056758
*CONN
*P B[0] I
*I *141:A I *D sky130_fd_sc_hd__clkbuf_1
*CAP
1 B[0] 0.000264901
2 *141:A 0.000264901
3 *141:A *4:17 2.79122e-05
4 *141:A *12:8 9.86551e-06
*RES
1 B[0] *141:A 47.7832 
*END

*D_NET *4 0.00071699
*CONN
*P B[1] I
*I *142:A I *D sky130_fd_sc_hd__buf_1
*CAP
1 B[1] 0.000330094
2 *142:A 0
3 *4:17 0.000330094
4 *141:A *4:17 2.79122e-05
5 *2:17 *4:17 2.88889e-05
*RES
1 B[1] *4:17 27.8627 
2 *4:17 *142:A 23 
*END

*D_NET *5 0.000692844
*CONN
*P P[0] O
*I *143:X O *D sky130_fd_sc_hd__buf_2
*CAP
1 P[0] 0.000282302
2 *143:X 0.000282302
3 P[0] P[2] 8.73764e-05
4 P[0] *14:10 4.08641e-05
*RES
1 *143:X P[0] 48.5734 
*END

*D_NET *6 0.000523884
*CONN
*P P[1] O
*I *144:X O *D sky130_fd_sc_hd__buf_2
*CAP
1 P[1] 0.000225862
2 *144:X 0.000225862
3 P[1] P[2] 0
4 P[1] P[3] 7.21596e-05
*RES
1 *144:X P[1] 47.1648 
*END

*D_NET *7 0.000608838
*CONN
*P P[2] O
*I *145:X O *D sky130_fd_sc_hd__buf_2
*CAP
1 P[2] 0.000220423
2 *145:X 0.000220423
3 P[2] P[3] 8.06147e-05
4 P[2] *16:8 0
5 P[0] P[2] 8.73764e-05
6 P[1] P[2] 0
*RES
1 *145:X P[2] 47.8691 
*END

*D_NET *8 0.000528309
*CONN
*P P[3] O
*I *139:LO O *D sky130_fd_sc_hd__conb_1
*CAP
1 P[3] 0.000187767
2 *139:LO 0.000187767
3 P[1] P[3] 7.21596e-05
4 P[2] P[3] 8.06147e-05
*RES
1 *139:LO P[3] 47.7832 
*END

*D_NET *11 0.000945406
*CONN
*I *135:B I *D sky130_fd_sc_hd__and2_1
*I *140:X O *D sky130_fd_sc_hd__clkbuf_1
*CAP
1 *135:B 0
2 *140:X 0.000472703
3 *11:10 0.000472703
*RES
1 *140:X *11:10 44.6907 
2 *11:10 *135:B 38 
*END

*D_NET *12 0.000634038
*CONN
*I *135:A I *D sky130_fd_sc_hd__and2_1
*I *141:X O *D sky130_fd_sc_hd__clkbuf_1
*CAP
1 *135:A 0.000137802
2 *141:X 0.000109802
3 *12:8 0.000247604
4 *135:A *13:10 0.000128964
5 *141:A *12:8 9.86551e-06
*RES
1 *141:X *12:8 39.9057 
2 *12:8 *135:A 41.48 
*END

*D_NET *13 0.00482912
*CONN
*I *138:A I *D sky130_fd_sc_hd__clkbuf_1
*I *134:A I *D sky130_fd_sc_hd__inv_2
*I *142:X O *D sky130_fd_sc_hd__buf_1
*CAP
1 *138:A 7.25383e-05
2 *134:A 0
3 *142:X 0
4 *13:12 7.25383e-05
5 *13:10 0.0022394
6 *13:4 0.0022394
7 *138:A *17:10 5.41288e-05
8 *13:10 *16:8 0
9 *13:10 *18:10 2.21565e-05
10 *135:A *13:10 0.000128964
*RES
1 *142:X *13:4 23 
2 *13:4 *13:10 45.5121 
3 *13:10 *13:12 15 
4 *13:12 *134:A 23 
5 *13:12 *138:A 24.5743 
*END

*D_NET *14 0.00083104
*CONN
*I *143:A I *D sky130_fd_sc_hd__buf_2
*I *136:X O *D sky130_fd_sc_hd__clkbuf_1
*CAP
1 *143:A 0
2 *136:X 0.000395088
3 *14:10 0.000395088
4 *14:10 *17:10 0
5 P[0] *14:10 4.08641e-05
*RES
1 *136:X *14:10 43.8621 
2 *14:10 *143:A 38 
*END

*D_NET *15 0.00317672
*CONN
*I *144:A I *D sky130_fd_sc_hd__buf_2
*I *137:X O *D sky130_fd_sc_hd__clkbuf_1
*CAP
1 *144:A 0
2 *137:X 0.000126229
3 *15:12 0.00146213
4 *15:8 0.00158836
*RES
1 *137:X *15:8 40.2579 
2 *15:8 *15:12 41.3486 
3 *15:12 *144:A 23 
*END

*D_NET *16 0.00070352
*CONN
*I *145:A I *D sky130_fd_sc_hd__buf_2
*I *138:X O *D sky130_fd_sc_hd__clkbuf_1
*CAP
1 *145:A 0.000221948
2 *138:X 0.000129812
3 *16:8 0.00035176
4 P[2] *16:8 0
5 *13:10 *16:8 0
*RES
1 *138:X *16:8 40.2579 
2 *16:8 *145:A 41.9564 
*END

*D_NET *17 0.000423224
*CONN
*I *136:A I *D sky130_fd_sc_hd__clkbuf_1
*I *134:Y O *D sky130_fd_sc_hd__inv_2
*CAP
1 *136:A 0
2 *134:Y 0.000184548
3 *17:10 0.000184548
4 *138:A *17:10 5.41288e-05
5 *14:10 *17:10 0
*RES
1 *134:Y *17:10 41.0036 
2 *17:10 *136:A 38 
*END

*D_NET *18 0.000536325
*CONN
*I *137:A I *D sky130_fd_sc_hd__clkbuf_1
*I *135:X O *D sky130_fd_sc_hd__and2_1
*CAP
1 *137:A 0
2 *135:X 0.000257084
3 *18:10 0.000257084
4 *13:10 *18:10 2.21565e-05
*RES
1 *135:X *18:10 41.9564 
2 *18:10 *137:A 38 
*END
