*SPEF "ieee 1481-1999"
*DESIGN "SarsaNada_e6"
*DATE "14:09:42 Tuesday September 16, 2025"
*VENDOR "The OpenROAD Project"
*PROGRAM "OpenROAD"
*VERSION "edf00dff99f6c40d67a30c0e22a8191c5d2ed9d6"
*DESIGN_FLOW "NAME_SCOPE LOCAL" "PIN_CAP NONE"
*DIVIDER /
*DELIMITER :
*BUS_DELIMITER []
*T_UNIT 1 NS
*C_UNIT 1 PF
*R_UNIT 1 OHM
*L_UNIT 1 HENRY

*NAME_MAP
*1 A[0]
*2 A[1]
*3 B[0]
*4 B[1]
*5 P[0]
*6 P[1]
*7 P[2]
*8 P[3]
*11 _0_
*12 _1_
*13 net1
*14 net2
*15 net3
*16 net4
*17 net5
*18 net6
*19 net7
*20 net8
*21 pp1
*22 FILLER_0_15
*23 FILLER_0_27
*24 FILLER_0_29
*25 FILLER_0_3
*26 FILLER_0_41
*27 FILLER_0_53
*28 FILLER_0_57
*29 FILLER_0_69
*30 FILLER_1_15
*31 FILLER_1_27
*32 FILLER_1_3
*33 FILLER_1_39
*34 FILLER_1_51
*35 FILLER_1_55
*36 FILLER_1_57
*37 FILLER_1_69
*38 FILLER_2_19
*39 FILLER_2_27
*40 FILLER_2_29
*41 FILLER_2_41
*42 FILLER_2_53
*43 FILLER_2_65
*44 FILLER_2_7
*45 FILLER_2_77
*46 FILLER_3_11
*47 FILLER_3_16
*48 FILLER_3_28
*49 FILLER_3_3
*50 FILLER_3_40
*51 FILLER_3_52
*52 FILLER_3_57
*53 FILLER_3_69
*54 FILLER_4_18
*55 FILLER_4_26
*56 FILLER_4_29
*57 FILLER_4_41
*58 FILLER_4_53
*59 FILLER_4_65
*60 FILLER_4_7
*61 FILLER_4_70
*62 FILLER_5_10
*63 FILLER_5_28
*64 FILLER_5_40
*65 FILLER_5_52
*66 FILLER_5_57
*67 FILLER_5_6
*68 FILLER_5_69
*69 FILLER_6_19
*70 FILLER_6_27
*71 FILLER_6_29
*72 FILLER_6_41
*73 FILLER_6_53
*74 FILLER_6_65
*75 FILLER_6_7
*76 FILLER_6_77
*77 FILLER_7_18
*78 FILLER_7_30
*79 FILLER_7_42
*80 FILLER_7_54
*81 FILLER_7_57
*82 FILLER_7_6
*83 FILLER_7_69
*84 FILLER_8_15
*85 FILLER_8_27
*86 FILLER_8_29
*87 FILLER_8_3
*88 FILLER_8_41
*89 FILLER_8_53
*90 FILLER_8_65
*91 FILLER_8_77
*92 FILLER_9_15
*93 FILLER_9_27
*94 FILLER_9_29
*95 FILLER_9_3
*96 FILLER_9_41
*97 FILLER_9_53
*98 FILLER_9_57
*99 FILLER_9_69
*100 PHY_EDGE_ROW_0_Left_10
*101 PHY_EDGE_ROW_0_Right_0
*102 PHY_EDGE_ROW_1_Left_11
*103 PHY_EDGE_ROW_1_Right_1
*104 PHY_EDGE_ROW_2_Left_12
*105 PHY_EDGE_ROW_2_Right_2
*106 PHY_EDGE_ROW_3_Left_13
*107 PHY_EDGE_ROW_3_Right_3
*108 PHY_EDGE_ROW_4_Left_14
*109 PHY_EDGE_ROW_4_Right_4
*110 PHY_EDGE_ROW_5_Left_15
*111 PHY_EDGE_ROW_5_Right_5
*112 PHY_EDGE_ROW_6_Left_16
*113 PHY_EDGE_ROW_6_Right_6
*114 PHY_EDGE_ROW_7_Left_17
*115 PHY_EDGE_ROW_7_Right_7
*116 PHY_EDGE_ROW_8_Left_18
*117 PHY_EDGE_ROW_8_Right_8
*118 PHY_EDGE_ROW_9_Left_19
*119 PHY_EDGE_ROW_9_Right_9
*120 TAP_TAPCELL_ROW_0_20
*121 TAP_TAPCELL_ROW_0_21
*122 TAP_TAPCELL_ROW_1_22
*123 TAP_TAPCELL_ROW_2_23
*124 TAP_TAPCELL_ROW_3_24
*125 TAP_TAPCELL_ROW_4_25
*126 TAP_TAPCELL_ROW_5_26
*127 TAP_TAPCELL_ROW_6_27
*128 TAP_TAPCELL_ROW_7_28
*129 TAP_TAPCELL_ROW_8_29
*130 TAP_TAPCELL_ROW_9_30
*131 TAP_TAPCELL_ROW_9_31
*132 _2_
*133 _3_
*134 _4_
*135 _5_
*136 _6_
*137 _7_
*138 _8_
*139 input1
*140 input2
*141 input3
*142 input4
*143 output5
*144 output6
*145 output7
*146 output8

*PORTS
A[0] I
A[1] I
B[0] I
B[1] I
P[0] O
P[1] O
P[2] O
P[3] O

*D_NET *1 0.00071699
*CONN
*P A[0] I
*I *139:A I *D sky130_fd_sc_hd__clkbuf_1
*CAP
1 A[0] 0.000330094
2 *139:A 0
3 *1:17 0.000330094
4 *1:17 P[1] 2.79122e-05
5 *1:17 P[3] 2.88889e-05
*RES
1 A[0] *1:17 27.8627 
2 *1:17 *139:A 23 
*END

*D_NET *2 0.000690187
*CONN
*P A[1] I
*I *140:A I *D sky130_fd_sc_hd__buf_1
*CAP
1 A[1] 0.000305972
2 *140:A 0.000305972
3 *140:A P[0] 7.82427e-05
*RES
1 A[1] *140:A 49.1918 
*END

*D_NET *3 0.000523661
*CONN
*P B[0] I
*I *141:A I *D sky130_fd_sc_hd__buf_1
*CAP
1 B[0] 0.000215152
2 *141:A 0.000215152
3 *141:A P[0] 8.06147e-05
4 *141:A *15:8 1.27424e-05
*RES
1 B[0] *141:A 47.7832 
*END

*D_NET *4 0.000616196
*CONN
*P B[1] I
*I *142:A I *D sky130_fd_sc_hd__buf_1
*CAP
1 B[1] 0.000297475
2 *142:A 0.000297475
3 *142:A P[1] 2.12457e-05
*RES
1 B[1] *142:A 49.8062 
*END

*D_NET *5 0.000620291
*CONN
*P P[0] O
*I *143:X O *D sky130_fd_sc_hd__buf_2
*CAP
1 P[0] 0.000230717
2 *143:X 0.000230717
3 P[0] *17:8 0
4 *140:A P[0] 7.82427e-05
5 *141:A P[0] 8.06147e-05
*RES
1 *143:X P[0] 47.8691 
*END

*D_NET *6 0.000566511
*CONN
*P P[1] O
*I *144:X O *D sky130_fd_sc_hd__buf_2
*CAP
1 P[1] 0.000247352
2 *144:X 0.000247352
3 P[1] *16:8 2.26497e-05
4 *142:A P[1] 2.12457e-05
5 *1:17 P[1] 2.79122e-05
*RES
1 *144:X P[1] 47.1648 
*END

*D_NET *7 0.000676002
*CONN
*P P[2] O
*I *145:X O *D sky130_fd_sc_hd__buf_2
*CAP
1 P[2] 8.68308e-05
2 *145:X 0.000236726
3 *7:14 0.000323556
4 P[2] P[3] 1.5289e-05
5 *7:14 P[3] 1.35999e-05
*RES
1 *145:X *7:14 49.9 
2 *7:14 P[2] 0.382667 
*END

*D_NET *8 0.00081785
*CONN
*P P[3] O
*I *146:X O *D sky130_fd_sc_hd__buf_2
*CAP
1 P[3] 8.62259e-05
2 *146:X 0.00029381
3 *8:10 0.000380036
4 *8:10 *19:10 0
5 P[2] P[3] 1.5289e-05
6 *1:17 P[3] 2.88889e-05
7 *7:14 P[3] 1.35999e-05
*RES
1 *146:X *8:10 42.5054 
2 *8:10 P[3] 8.4816 
*END

*D_NET *11 0.00214784
*CONN
*I *136:A I *D sky130_fd_sc_hd__and2_1
*I *137:C I *D sky130_fd_sc_hd__and3_1
*I *134:A I *D sky130_fd_sc_hd__inv_2
*I *133:Y O *D sky130_fd_sc_hd__nand4_1
*CAP
1 *136:A 0.000194251
2 *137:C 6.07568e-05
3 *134:A 0.00013347
4 *133:Y 3.60515e-05
5 *11:10 0.000344934
6 *11:6 0.000381009
7 *134:A *19:10 0
8 *134:A *20:8 4.334e-05
9 *136:A *133:A 0.00014196
10 *136:A *133:B 0.000171296
11 *136:A *15:25 0.000337888
12 *11:6 *133:A 5.3304e-05
13 *11:6 *133:B 9.58714e-05
14 *11:6 *135:B2 1.57571e-05
15 *11:10 *137:A 0
16 *11:10 *16:25 0.000110913
17 *11:10 *20:8 2.70366e-05
*RES
1 *133:Y *11:6 24.0979 
2 *11:6 *11:10 18.3143 
3 *11:10 *134:A 40.5271 
4 *11:10 *137:C 38.7043 
5 *11:6 *136:A 28.8829 
*END

*D_NET *12 0.000445503
*CONN
*I *136:B I *D sky130_fd_sc_hd__and2_1
*I *135:X O *D sky130_fd_sc_hd__a22o_1
*CAP
1 *136:B 2.12065e-05
2 *135:X 4.99773e-05
3 *12:8 7.11838e-05
4 *136:B *14:25 0.00014196
5 *136:B *15:25 0.000143655
6 *12:8 *14:29 6.07611e-06
7 *12:8 *16:25 0
8 *12:8 *18:8 1.14452e-05
*RES
1 *135:X *12:8 38.8493 
2 *12:8 *136:B 39.5743 
*END

*D_NET *13 0.000929755
*CONN
*I *135:B2 I *D sky130_fd_sc_hd__a22o_1
*I *133:D I *D sky130_fd_sc_hd__nand4_1
*I *139:X O *D sky130_fd_sc_hd__clkbuf_1
*CAP
1 *135:B2 8.9585e-05
2 *133:D 0
3 *139:X 0.000140194
4 *13:8 0.000229779
5 *135:B2 *133:A 2.93845e-05
6 *135:B2 *133:B 3.86216e-05
7 *135:B2 *135:A1 4.00259e-06
8 *135:B2 *135:B1 4.84797e-05
9 *135:B2 *14:25 0
10 *135:B2 *16:12 5.67058e-05
11 *135:B2 *16:19 0.000128723
12 *13:8 *16:12 0.000148524
13 *11:6 *135:B2 1.57571e-05
*RES
1 *139:X *13:8 26.8529 
2 *13:8 *133:D 23 
3 *13:8 *135:B2 26.5214 
*END

*D_NET *14 0.00636587
*CONN
*I *135:A2 I *D sky130_fd_sc_hd__a22o_1
*I *133:B I *D sky130_fd_sc_hd__nand4_1
*I *137:A I *D sky130_fd_sc_hd__and3_1
*I *132:A_N I *D sky130_fd_sc_hd__and2b_1
*I *140:X O *D sky130_fd_sc_hd__buf_1
*CAP
1 *135:A2 0
2 *133:B 0.000283413
3 *137:A 0.000241544
4 *132:A_N 0
5 *140:X 0.000560264
6 *14:29 0.000611055
7 *14:25 0.00101444
8 *14:10 0.0014886
9 *133:B *135:A1 0
10 *14:10 *17:8 0
11 *14:10 *21:10 0
12 *14:25 *135:A1 1.14154e-05
13 *14:25 *135:B1 5.90675e-06
14 *14:25 *15:25 0.00169541
15 *14:25 *17:8 0
16 *14:29 *16:25 0
17 *135:B2 *133:B 3.86216e-05
18 *135:B2 *14:25 0
19 *136:A *133:B 0.000171296
20 *136:B *14:25 0.00014196
21 *11:6 *133:B 9.58714e-05
22 *11:10 *137:A 0
23 *12:8 *14:29 6.07611e-06
*RES
1 *140:X *14:10 47.5493 
2 *14:10 *132:A_N 38 
3 *14:10 *14:25 36.9779 
4 *14:25 *14:29 16.2014 
5 *14:29 *137:A 42.1843 
6 *14:29 *133:B 42.9248 
7 *14:25 *135:A2 23 
*END

*D_NET *15 0.00527991
*CONN
*I *135:A1 I *D sky130_fd_sc_hd__a22o_1
*I *133:A I *D sky130_fd_sc_hd__nand4_1
*I *132:B I *D sky130_fd_sc_hd__and2b_1
*I *141:X O *D sky130_fd_sc_hd__buf_1
*CAP
1 *135:A1 1.92397e-05
2 *133:A 5.63659e-05
3 *132:B 0
4 *141:X 0.00014082
5 *15:25 0.000855135
6 *15:12 0.00106216
7 *15:8 0.000423449
8 *133:A *135:B1 3.53115e-05
9 *15:8 *17:8 0
10 *15:12 *143:A 0.000202663
11 *15:12 *21:10 5.50106e-05
12 *133:B *135:A1 0
13 *135:B2 *133:A 2.93845e-05
14 *135:B2 *135:A1 4.00259e-06
15 *136:A *133:A 0.00014196
16 *136:A *15:25 0.000337888
17 *136:B *15:25 0.000143655
18 *141:A *15:8 1.27424e-05
19 *11:6 *133:A 5.3304e-05
20 *14:25 *135:A1 1.14154e-05
21 *14:25 *15:25 0.00169541
*RES
1 *141:X *15:8 40.61 
2 *15:8 *15:12 20.8621 
3 *15:12 *132:B 23 
4 *15:12 *15:25 24.0286 
5 *15:25 *133:A 25.0507 
6 *15:25 *135:A1 23.4971 
*END

*D_NET *16 0.00220176
*CONN
*I *135:B1 I *D sky130_fd_sc_hd__a22o_1
*I *137:B I *D sky130_fd_sc_hd__and3_1
*I *133:C I *D sky130_fd_sc_hd__nand4_1
*I *142:X O *D sky130_fd_sc_hd__buf_1
*CAP
1 *135:B1 0.000117218
2 *137:B 0
3 *133:C 0
4 *142:X 0.000218039
5 *16:25 0.00018414
6 *16:19 0.000396899
7 *16:12 0.000302877
8 *16:8 0.000425374
9 P[1] *16:8 2.26497e-05
10 *133:A *135:B1 3.53115e-05
11 *135:B2 *135:B1 4.84797e-05
12 *135:B2 *16:12 5.67058e-05
13 *135:B2 *16:19 0.000128723
14 *11:10 *16:25 0.000110913
15 *12:8 *16:25 0
16 *13:8 *16:12 0.000148524
17 *14:25 *135:B1 5.90675e-06
18 *14:29 *16:25 0
*RES
1 *142:X *16:8 42.0186 
2 *16:8 *16:12 18.48 
3 *16:12 *133:C 23 
4 *16:12 *16:19 1.57429 
5 *16:19 *16:25 32.9621 
6 *16:25 *137:B 23 
7 *16:19 *135:B1 25.0714 
*END

*D_NET *17 0.000799211
*CONN
*I *143:A I *D sky130_fd_sc_hd__buf_2
*I *138:X O *D sky130_fd_sc_hd__clkbuf_1
*CAP
1 *143:A 0.000154255
2 *138:X 0.000123592
3 *17:8 0.000277847
4 *17:8 *21:10 4.08537e-05
5 P[0] *17:8 0
6 *14:10 *17:8 0
7 *14:25 *17:8 0
8 *15:8 *17:8 0
9 *15:12 *143:A 0.000202663
*RES
1 *138:X *17:8 40.2579 
2 *17:8 *143:A 41.9564 
*END

*D_NET *18 0.00113387
*CONN
*I *144:A I *D sky130_fd_sc_hd__buf_2
*I *136:X O *D sky130_fd_sc_hd__and2_1
*CAP
1 *144:A 0.000452798
2 *136:X 0.000108413
3 *18:8 0.000561212
4 *12:8 *18:8 1.14452e-05
*RES
1 *136:X *18:8 39.9057 
2 *18:8 *144:A 46.2443 
*END

*D_NET *19 0.00114507
*CONN
*I *145:A I *D sky130_fd_sc_hd__buf_2
*I *137:X O *D sky130_fd_sc_hd__and3_1
*CAP
1 *145:A 0
2 *137:X 0.000483582
3 *19:10 0.000483582
4 *19:10 *146:A 0.000177909
5 *19:10 *20:8 0
6 *134:A *19:10 0
7 *8:10 *19:10 0
*RES
1 *137:X *19:10 46.555 
2 *19:10 *145:A 38 
*END

*D_NET *20 0.000741239
*CONN
*I *146:A I *D sky130_fd_sc_hd__buf_2
*I *134:Y O *D sky130_fd_sc_hd__inv_2
*CAP
1 *146:A 0.000156561
2 *134:Y 8.99153e-05
3 *20:8 0.000246477
4 *134:A *20:8 4.334e-05
5 *11:10 *20:8 2.70366e-05
6 *19:10 *146:A 0.000177909
7 *19:10 *20:8 0
*RES
1 *134:Y *20:8 39.9057 
2 *20:8 *146:A 41.9564 
*END

*D_NET *21 0.000417475
*CONN
*I *138:A I *D sky130_fd_sc_hd__clkbuf_1
*I *132:X O *D sky130_fd_sc_hd__and2b_1
*CAP
1 *138:A 0
2 *132:X 0.000160806
3 *21:10 0.000160806
4 *14:10 *21:10 0
5 *15:12 *21:10 5.50106e-05
6 *17:8 *21:10 4.08537e-05
*RES
1 *132:X *21:10 40.8793 
2 *21:10 *138:A 38 
*END
