*SPEF "ieee 1481-1999"
*DESIGN "Sarsa_Ruido_e9"
*DATE "10:03:40 Friday September 12, 2025"
*VENDOR "The OpenROAD Project"
*PROGRAM "OpenROAD"
*VERSION "edf00dff99f6c40d67a30c0e22a8191c5d2ed9d6"
*DESIGN_FLOW "NAME_SCOPE LOCAL" "PIN_CAP NONE"
*DIVIDER /
*DELIMITER :
*BUS_DELIMITER []
*T_UNIT 1 NS
*C_UNIT 1 PF
*R_UNIT 1 OHM
*L_UNIT 1 HENRY

*NAME_MAP
*1 A[0]
*2 A[1]
*3 B[0]
*4 B[1]
*5 P[0]
*6 P[1]
*7 P[2]
*8 P[3]
*11 _00_
*12 _01_
*13 _02_
*14 _03_
*15 _04_
*16 net1
*17 net2
*18 net3
*19 net4
*20 net5
*21 net6
*22 net7
*23 net8
*24 FILLER_0_15
*25 FILLER_0_23
*26 FILLER_0_27
*27 FILLER_0_29
*28 FILLER_0_3
*29 FILLER_0_35
*30 FILLER_0_41
*31 FILLER_0_49
*32 FILLER_0_55
*33 FILLER_0_57
*34 FILLER_0_69
*35 FILLER_1_15
*36 FILLER_1_19
*37 FILLER_1_3
*38 FILLER_1_31
*39 FILLER_1_39
*40 FILLER_1_47
*41 FILLER_1_55
*42 FILLER_1_57
*43 FILLER_1_69
*44 FILLER_2_15
*45 FILLER_2_29
*46 FILLER_2_3
*47 FILLER_2_41
*48 FILLER_2_53
*49 FILLER_2_65
*50 FILLER_2_77
*51 FILLER_3_15
*52 FILLER_3_27
*53 FILLER_3_3
*54 FILLER_3_39
*55 FILLER_3_51
*56 FILLER_3_55
*57 FILLER_3_57
*58 FILLER_3_69
*59 FILLER_4_15
*60 FILLER_4_27
*61 FILLER_4_29
*62 FILLER_4_3
*63 FILLER_4_37
*64 FILLER_4_49
*65 FILLER_4_61
*66 FILLER_4_73
*67 FILLER_5_15
*68 FILLER_5_27
*69 FILLER_5_3
*70 FILLER_5_42
*71 FILLER_5_54
*72 FILLER_5_57
*73 FILLER_5_69
*74 FILLER_6_15
*75 FILLER_6_27
*76 FILLER_6_29
*77 FILLER_6_3
*78 FILLER_6_41
*79 FILLER_6_53
*80 FILLER_6_65
*81 FILLER_6_77
*82 FILLER_7_15
*83 FILLER_7_27
*84 FILLER_7_3
*85 FILLER_7_39
*86 FILLER_7_51
*87 FILLER_7_55
*88 FILLER_7_57
*89 FILLER_7_69
*90 FILLER_8_15
*91 FILLER_8_27
*92 FILLER_8_29
*93 FILLER_8_3
*94 FILLER_8_44
*95 FILLER_8_56
*96 FILLER_8_68
*97 FILLER_8_80
*98 FILLER_9_15
*99 FILLER_9_27
*100 FILLER_9_29
*101 FILLER_9_3
*102 FILLER_9_34
*103 FILLER_9_42
*104 FILLER_9_49
*105 FILLER_9_55
*106 FILLER_9_57
*107 FILLER_9_69
*108 PHY_EDGE_ROW_0_Left_10
*109 PHY_EDGE_ROW_0_Right_0
*110 PHY_EDGE_ROW_1_Left_11
*111 PHY_EDGE_ROW_1_Right_1
*112 PHY_EDGE_ROW_2_Left_12
*113 PHY_EDGE_ROW_2_Right_2
*114 PHY_EDGE_ROW_3_Left_13
*115 PHY_EDGE_ROW_3_Right_3
*116 PHY_EDGE_ROW_4_Left_14
*117 PHY_EDGE_ROW_4_Right_4
*118 PHY_EDGE_ROW_5_Left_15
*119 PHY_EDGE_ROW_5_Right_5
*120 PHY_EDGE_ROW_6_Left_16
*121 PHY_EDGE_ROW_6_Right_6
*122 PHY_EDGE_ROW_7_Left_17
*123 PHY_EDGE_ROW_7_Right_7
*124 PHY_EDGE_ROW_8_Left_18
*125 PHY_EDGE_ROW_8_Right_8
*126 PHY_EDGE_ROW_9_Left_19
*127 PHY_EDGE_ROW_9_Right_9
*128 TAP_TAPCELL_ROW_0_20
*129 TAP_TAPCELL_ROW_0_21
*130 TAP_TAPCELL_ROW_1_22
*131 TAP_TAPCELL_ROW_2_23
*132 TAP_TAPCELL_ROW_3_24
*133 TAP_TAPCELL_ROW_4_25
*134 TAP_TAPCELL_ROW_5_26
*135 TAP_TAPCELL_ROW_6_27
*136 TAP_TAPCELL_ROW_7_28
*137 TAP_TAPCELL_ROW_8_29
*138 TAP_TAPCELL_ROW_9_30
*139 TAP_TAPCELL_ROW_9_31
*140 _05_
*141 _06_
*142 _07_
*143 _08_
*144 _09_
*145 _10_
*146 _11_
*147 _12_
*148 _13_
*149 input1
*150 input2
*151 input3
*152 input4
*153 output5
*154 output6
*155 output7
*156 output8

*PORTS
A[0] I
A[1] I
B[0] I
B[1] I
P[0] O
P[1] O
P[2] O
P[3] O

*D_NET *1 0.000886249
*CONN
*P A[0] I
*I *149:A I *D sky130_fd_sc_hd__clkbuf_1
*CAP
1 A[0] 0.000443124
2 *149:A 0.000443124
3 *149:A P[0] 0
4 *149:A P[1] 0
5 *149:A *153:A 0
*RES
1 A[0] *149:A 11.04 
*END

*D_NET *2 0.000786235
*CONN
*P A[1] I
*I *150:A I *D sky130_fd_sc_hd__buf_1
*CAP
1 A[1] 0.000393118
2 *150:A 0.000393118
3 *150:A P[0] 0
*RES
1 A[1] *150:A 10.35 
*END

*D_NET *3 0.00088283
*CONN
*P B[0] I
*I *151:A I *D sky130_fd_sc_hd__buf_1
*CAP
1 B[0] 0.000441415
2 *151:A 0.000441415
3 *151:A P[1] 0
*RES
1 B[0] *151:A 11.04 
*END

*D_NET *4 0.000874227
*CONN
*P B[1] I
*I *152:A I *D sky130_fd_sc_hd__buf_1
*CAP
1 B[1] 0.000437114
2 *152:A 0.000437114
3 *152:A P[2] 0
4 *152:A *155:A 0
*RES
1 B[1] *152:A 11.37 
*END

*D_NET *5 0.000874667
*CONN
*P P[0] O
*I *153:X O *D sky130_fd_sc_hd__buf_2
*CAP
1 P[0] 0.000432365
2 *153:X 0.000432365
3 P[0] *17:10 9.93685e-06
4 *149:A P[0] 0
5 *150:A P[0] 0
*RES
1 *153:X P[0] 10.53 
*END

*D_NET *6 0.00086684
*CONN
*P P[1] O
*I *154:X O *D sky130_fd_sc_hd__buf_2
*CAP
1 P[1] 0.000430504
2 *154:X 0.000430504
3 P[1] *154:A 5.83121e-06
4 *149:A P[1] 0
5 *151:A P[1] 0
*RES
1 *154:X P[1] 10.74 
*END

*D_NET *7 0.00089547
*CONN
*P P[2] O
*I *155:X O *D sky130_fd_sc_hd__buf_2
*CAP
1 P[2] 0.000447735
2 *155:X 0.000447735
3 P[2] P[3] 0
4 *152:A P[2] 0
*RES
1 *155:X P[2] 11.55 
*END

*D_NET *8 0.00089547
*CONN
*P P[3] O
*I *156:X O *D sky130_fd_sc_hd__buf_2
*CAP
1 P[3] 0.000447735
2 *156:X 0.000447735
3 P[2] P[3] 0
*RES
1 *156:X P[3] 11.55 
*END

*D_NET *11 0.00288497
*CONN
*I *148:B1 I *D sky130_fd_sc_hd__a31o_1
*I *144:B1 I *D sky130_fd_sc_hd__a21oi_1
*I *143:A I *D sky130_fd_sc_hd__nor2_1
*I *141:X O *D sky130_fd_sc_hd__and4bb_1
*CAP
1 *148:B1 0.000332136
2 *144:B1 9.55544e-05
3 *143:A 0.000116782
4 *141:X 0.000318904
5 *11:10 0.000366886
6 *11:8 0.00080559
7 *143:A *144:A2 0.000261609
8 *143:A *16:16 0.000309896
9 *143:A *17:14 8.65905e-05
10 *144:B1 *144:A1 4.77757e-05
11 *148:B1 *148:A3 7.63204e-05
12 *11:8 *19:18 6.6925e-05
*RES
1 *141:X *11:8 8.19 
2 *11:8 *11:10 2.2725 
3 *11:10 *143:A 7.4925 
4 *11:10 *144:B1 5.0775 
5 *11:8 *148:B1 9.315 
*END

*D_NET *12 0.000249466
*CONN
*I *143:B I *D sky130_fd_sc_hd__nor2_1
*I *142:X O *D sky130_fd_sc_hd__o2bb2a_1
*CAP
1 *143:B 7.49562e-05
2 *142:X 7.49562e-05
3 *143:B *141:C 2.97004e-06
4 *143:B *153:A 0
5 *143:B *16:16 4.82919e-05
6 *143:B *17:10 0
7 *143:B *17:14 4.82919e-05
*RES
1 *142:X *143:B 8.52 
*END

*D_NET *13 0.00124137
*CONN
*I *146:A I *D sky130_fd_sc_hd__inv_2
*I *148:A2 I *D sky130_fd_sc_hd__a31o_1
*I *145:Y O *D sky130_fd_sc_hd__nand3b_1
*CAP
1 *146:A 0.000359119
2 *148:A2 0
3 *145:Y 4.87657e-05
4 *13:6 0.000407885
5 *146:A *148:A1 1.47347e-05
6 *146:A *155:A 0.000276909
7 *146:A *19:10 0
8 *13:6 *148:A1 6.05875e-05
9 *13:6 *155:A 7.33728e-05
*RES
1 *145:Y *13:6 3.085 
2 *13:6 *148:A2 1.6 
3 *13:6 *146:A 12.92 
*END

*D_NET *14 0.000434288
*CONN
*I *148:A3 I *D sky130_fd_sc_hd__a31o_1
*I *147:Y O *D sky130_fd_sc_hd__nand2b_1
*CAP
1 *148:A3 0.000178984
2 *147:Y 0.000178984
3 *148:A3 *19:12 0
4 *148:B1 *148:A3 7.63204e-05
*RES
1 *147:Y *148:A3 10.08 
*END

*D_NET *15 0.000306325
*CONN
*I *144:A1 I *D sky130_fd_sc_hd__a21oi_1
*I *140:Y O *D sky130_fd_sc_hd__inv_2
*CAP
1 *144:A1 4.8541e-05
2 *140:Y 4.8541e-05
3 *144:A1 *18:21 0.000161467
4 *144:B1 *144:A1 4.77757e-05
*RES
1 *140:Y *144:A1 4.685 
*END

*D_NET *16 0.00145572
*CONN
*I *142:A1_N I *D sky130_fd_sc_hd__o2bb2a_1
*I *141:C I *D sky130_fd_sc_hd__and4bb_1
*I *149:X O *D sky130_fd_sc_hd__clkbuf_1
*CAP
1 *142:A1_N 0
2 *141:C 7.93938e-05
3 *149:X 0.000295011
4 *16:16 0.000374405
5 *141:C *142:B2 4.61744e-05
6 *141:C *17:14 7.28565e-05
7 *141:C *17:47 0
8 *141:C *18:25 7.4027e-05
9 *16:16 *142:B1 0
10 *16:16 *153:A 7.35729e-05
11 *16:16 *154:A 0
12 *16:16 *17:14 7.91212e-05
13 *143:A *16:16 0.000309896
14 *143:B *141:C 2.97004e-06
15 *143:B *16:16 4.82919e-05
*RES
1 *149:X *16:16 11.8138 
2 *16:16 *141:C 7.65125 
3 *16:16 *142:A1_N 1.6 
*END

*D_NET *17 0.00462892
*CONN
*I *148:A1 I *D sky130_fd_sc_hd__a31o_1
*I *145:B I *D sky130_fd_sc_hd__nand3b_1
*I *144:A2 I *D sky130_fd_sc_hd__a21oi_1
*I *142:B1 I *D sky130_fd_sc_hd__o2bb2a_1
*I *141:A_N I *D sky130_fd_sc_hd__and4bb_1
*I *150:X O *D sky130_fd_sc_hd__buf_1
*CAP
1 *148:A1 0.000247386
2 *145:B 4.1743e-05
3 *144:A2 8.07769e-05
4 *142:B1 2.08101e-05
5 *141:A_N 0.000145841
6 *150:X 0.000313667
7 *17:47 0.000649301
8 *17:14 0.000329228
9 *17:12 0.000243354
10 *17:10 0.000673839
11 *141:A_N *142:B2 6.36656e-05
12 *141:A_N *18:38 0
13 *144:A2 *18:21 0.000310789
14 *17:10 *153:A 7.06865e-05
15 *17:14 *18:21 0.000278111
16 *17:47 *18:25 0
17 *17:47 *18:38 0
18 *17:47 *19:12 0.000141606
19 *17:47 *19:18 0.000384385
20 P[0] *17:10 9.93685e-06
21 *141:C *17:14 7.28565e-05
22 *141:C *17:47 0
23 *143:A *144:A2 0.000261609
24 *143:A *17:14 8.65905e-05
25 *143:B *17:10 0
26 *143:B *17:14 4.82919e-05
27 *146:A *148:A1 1.47347e-05
28 *13:6 *148:A1 6.05875e-05
29 *16:16 *142:B1 0
30 *16:16 *17:14 7.91212e-05
*RES
1 *150:X *17:10 7.665 
2 *17:10 *17:12 2 
3 *17:12 *17:14 4.245 
4 *17:14 *141:A_N 8.195 
5 *17:14 *142:B1 1.96 
6 *17:12 *144:A2 4.825 
7 *17:10 *17:47 9.245 
8 *17:47 *145:B 2.47 
9 *17:47 *148:A1 4.735 
*END

*D_NET *18 0.00403279
*CONN
*I *142:A2_N I *D sky130_fd_sc_hd__o2bb2a_1
*I *147:B I *D sky130_fd_sc_hd__nand2b_1
*I *145:A_N I *D sky130_fd_sc_hd__nand3b_1
*I *141:D I *D sky130_fd_sc_hd__and4bb_1
*I *140:A I *D sky130_fd_sc_hd__inv_2
*I *151:X O *D sky130_fd_sc_hd__buf_1
*CAP
1 *142:A2_N 0
2 *147:B 0.00010287
3 *145:A_N 0.000101034
4 *141:D 0
5 *140:A 0
6 *151:X 0.000248954
7 *18:38 0.000607552
8 *18:25 0.000444018
9 *18:21 0.000607421
10 *18:12 0.000816006
11 *145:A_N *19:12 0.000203002
12 *145:A_N *19:18 3.09233e-05
13 *147:B *147:A_N 4.66108e-05
14 *18:38 *142:B2 0
15 *18:38 *19:18 0
16 *141:A_N *18:38 0
17 *141:C *18:25 7.4027e-05
18 *144:A1 *18:21 0.000161467
19 *144:A2 *18:21 0.000310789
20 *17:14 *18:21 0.000278111
21 *17:47 *18:25 0
22 *17:47 *18:38 0
*RES
1 *151:X *18:12 9.41 
2 *18:12 *140:A 1.6 
3 *18:12 *18:21 7.965 
4 *18:21 *18:25 2.87 
5 *18:25 *141:D 3.6 
6 *18:25 *18:38 8.27 
7 *18:38 *145:A_N 8.255 
8 *18:38 *147:B 3.20875 
9 *18:21 *142:A2_N 1.6 
*END

*D_NET *19 0.00336186
*CONN
*I *145:C I *D sky130_fd_sc_hd__nand3b_1
*I *147:A_N I *D sky130_fd_sc_hd__nand2b_1
*I *142:B2 I *D sky130_fd_sc_hd__o2bb2a_1
*I *141:B_N I *D sky130_fd_sc_hd__and4bb_1
*I *152:X O *D sky130_fd_sc_hd__buf_1
*CAP
1 *145:C 0
2 *147:A_N 2.51931e-05
3 *142:B2 7.65228e-05
4 *141:B_N 6.48201e-05
5 *152:X 0.000525872
6 *19:18 0.000553648
7 *19:12 0.000522069
8 *19:10 0.000610443
9 *19:10 *155:A 0
10 *141:A_N *142:B2 6.36656e-05
11 *141:C *142:B2 4.61744e-05
12 *145:A_N *19:12 0.000203002
13 *145:A_N *19:18 3.09233e-05
14 *146:A *19:10 0
15 *147:B *147:A_N 4.66108e-05
16 *148:A3 *19:12 0
17 *11:8 *19:18 6.6925e-05
18 *17:47 *19:12 0.000141606
19 *17:47 *19:18 0.000384385
20 *18:38 *142:B2 0
21 *18:38 *19:18 0
*RES
1 *152:X *19:10 11.895 
2 *19:10 *19:12 2.4 
3 *19:12 *19:18 9.995 
4 *19:18 *141:B_N 2.395 
5 *19:18 *142:B2 7.235 
6 *19:12 *147:A_N 4.05 
7 *19:10 *145:C 3.6 
*END

*D_NET *20 0.000491383
*CONN
*I *153:A I *D sky130_fd_sc_hd__buf_2
*I *143:Y O *D sky130_fd_sc_hd__nor2_1
*CAP
1 *153:A 0.000173562
2 *143:Y 0.000173562
3 *143:B *153:A 0
4 *149:A *153:A 0
5 *16:16 *153:A 7.35729e-05
6 *17:10 *153:A 7.06865e-05
*RES
1 *143:Y *153:A 9.975 
*END

*D_NET *21 0.000333949
*CONN
*I *154:A I *D sky130_fd_sc_hd__buf_2
*I *144:Y O *D sky130_fd_sc_hd__a21oi_1
*CAP
1 *154:A 0.000164059
2 *144:Y 0.000164059
3 P[1] *154:A 5.83121e-06
4 *16:16 *154:A 0
*RES
1 *144:Y *154:A 9.63 
*END

*D_NET *22 0.00126039
*CONN
*I *155:A I *D sky130_fd_sc_hd__buf_2
*I *148:X O *D sky130_fd_sc_hd__a31o_1
*CAP
1 *155:A 0.000455053
2 *148:X 0.000455053
3 *155:A *156:A 0
4 *146:A *155:A 0.000276909
5 *152:A *155:A 0
6 *13:6 *155:A 7.33728e-05
7 *19:10 *155:A 0
*RES
1 *148:X *155:A 16.095 
*END

*D_NET *23 0.0004337
*CONN
*I *156:A I *D sky130_fd_sc_hd__buf_2
*I *146:Y O *D sky130_fd_sc_hd__inv_2
*CAP
1 *156:A 0.00021685
2 *146:Y 0.00021685
3 *155:A *156:A 0
*RES
1 *146:Y *156:A 9.975 
*END
