*SPEF "ieee 1481-1999"
*DESIGN "Sarsa_Ruido_e9"
*DATE "10:03:40 Friday September 12, 2025"
*VENDOR "The OpenROAD Project"
*PROGRAM "OpenROAD"
*VERSION "edf00dff99f6c40d67a30c0e22a8191c5d2ed9d6"
*DESIGN_FLOW "NAME_SCOPE LOCAL" "PIN_CAP NONE"
*DIVIDER /
*DELIMITER :
*BUS_DELIMITER []
*T_UNIT 1 NS
*C_UNIT 1 PF
*R_UNIT 1 OHM
*L_UNIT 1 HENRY

*NAME_MAP
*1 A[0]
*2 A[1]
*3 B[0]
*4 B[1]
*5 P[0]
*6 P[1]
*7 P[2]
*8 P[3]
*11 _00_
*12 _01_
*13 _02_
*14 _03_
*15 _04_
*16 net1
*17 net2
*18 net3
*19 net4
*20 net5
*21 net6
*22 net7
*23 net8
*24 FILLER_0_15
*25 FILLER_0_23
*26 FILLER_0_27
*27 FILLER_0_29
*28 FILLER_0_3
*29 FILLER_0_35
*30 FILLER_0_41
*31 FILLER_0_49
*32 FILLER_0_55
*33 FILLER_0_57
*34 FILLER_0_69
*35 FILLER_1_15
*36 FILLER_1_19
*37 FILLER_1_3
*38 FILLER_1_31
*39 FILLER_1_39
*40 FILLER_1_47
*41 FILLER_1_55
*42 FILLER_1_57
*43 FILLER_1_69
*44 FILLER_2_15
*45 FILLER_2_29
*46 FILLER_2_3
*47 FILLER_2_41
*48 FILLER_2_53
*49 FILLER_2_65
*50 FILLER_2_77
*51 FILLER_3_15
*52 FILLER_3_27
*53 FILLER_3_3
*54 FILLER_3_39
*55 FILLER_3_51
*56 FILLER_3_55
*57 FILLER_3_57
*58 FILLER_3_69
*59 FILLER_4_15
*60 FILLER_4_27
*61 FILLER_4_29
*62 FILLER_4_3
*63 FILLER_4_37
*64 FILLER_4_49
*65 FILLER_4_61
*66 FILLER_4_73
*67 FILLER_5_15
*68 FILLER_5_27
*69 FILLER_5_3
*70 FILLER_5_42
*71 FILLER_5_54
*72 FILLER_5_57
*73 FILLER_5_69
*74 FILLER_6_15
*75 FILLER_6_27
*76 FILLER_6_29
*77 FILLER_6_3
*78 FILLER_6_41
*79 FILLER_6_53
*80 FILLER_6_65
*81 FILLER_6_77
*82 FILLER_7_15
*83 FILLER_7_27
*84 FILLER_7_3
*85 FILLER_7_39
*86 FILLER_7_51
*87 FILLER_7_55
*88 FILLER_7_57
*89 FILLER_7_69
*90 FILLER_8_15
*91 FILLER_8_27
*92 FILLER_8_29
*93 FILLER_8_3
*94 FILLER_8_44
*95 FILLER_8_56
*96 FILLER_8_68
*97 FILLER_8_80
*98 FILLER_9_15
*99 FILLER_9_27
*100 FILLER_9_29
*101 FILLER_9_3
*102 FILLER_9_34
*103 FILLER_9_42
*104 FILLER_9_49
*105 FILLER_9_55
*106 FILLER_9_57
*107 FILLER_9_69
*108 PHY_EDGE_ROW_0_Left_10
*109 PHY_EDGE_ROW_0_Right_0
*110 PHY_EDGE_ROW_1_Left_11
*111 PHY_EDGE_ROW_1_Right_1
*112 PHY_EDGE_ROW_2_Left_12
*113 PHY_EDGE_ROW_2_Right_2
*114 PHY_EDGE_ROW_3_Left_13
*115 PHY_EDGE_ROW_3_Right_3
*116 PHY_EDGE_ROW_4_Left_14
*117 PHY_EDGE_ROW_4_Right_4
*118 PHY_EDGE_ROW_5_Left_15
*119 PHY_EDGE_ROW_5_Right_5
*120 PHY_EDGE_ROW_6_Left_16
*121 PHY_EDGE_ROW_6_Right_6
*122 PHY_EDGE_ROW_7_Left_17
*123 PHY_EDGE_ROW_7_Right_7
*124 PHY_EDGE_ROW_8_Left_18
*125 PHY_EDGE_ROW_8_Right_8
*126 PHY_EDGE_ROW_9_Left_19
*127 PHY_EDGE_ROW_9_Right_9
*128 TAP_TAPCELL_ROW_0_20
*129 TAP_TAPCELL_ROW_0_21
*130 TAP_TAPCELL_ROW_1_22
*131 TAP_TAPCELL_ROW_2_23
*132 TAP_TAPCELL_ROW_3_24
*133 TAP_TAPCELL_ROW_4_25
*134 TAP_TAPCELL_ROW_5_26
*135 TAP_TAPCELL_ROW_6_27
*136 TAP_TAPCELL_ROW_7_28
*137 TAP_TAPCELL_ROW_8_29
*138 TAP_TAPCELL_ROW_9_30
*139 TAP_TAPCELL_ROW_9_31
*140 _05_
*141 _06_
*142 _07_
*143 _08_
*144 _09_
*145 _10_
*146 _11_
*147 _12_
*148 _13_
*149 input1
*150 input2
*151 input3
*152 input4
*153 output5
*154 output6
*155 output7
*156 output8

*PORTS
A[0] I
A[1] I
B[0] I
B[1] I
P[0] O
P[1] O
P[2] O
P[3] O

*D_NET *1 0.00101727
*CONN
*P A[0] I
*I *149:A I *D sky130_fd_sc_hd__clkbuf_1
*CAP
1 A[0] 0.000508634
2 *149:A 0.000508634
3 *149:A P[0] 0
4 *149:A P[1] 0
5 *149:A *20:10 0
*RES
1 A[0] *149:A 48.2743 
*END

*D_NET *2 0.000901682
*CONN
*P A[1] I
*I *150:A I *D sky130_fd_sc_hd__buf_1
*CAP
1 A[1] 0.000450841
2 *150:A 0.000450841
3 *150:A P[0] 0
*RES
1 A[1] *150:A 47.3214 
*END

*D_NET *3 0.00101261
*CONN
*P B[0] I
*I *151:A I *D sky130_fd_sc_hd__buf_1
*CAP
1 B[0] 0.000506304
2 *151:A 0.000506304
3 *151:A P[1] 0
*RES
1 B[0] *151:A 48.2743 
*END

*D_NET *4 0.000980411
*CONN
*P B[1] I
*I *152:A I *D sky130_fd_sc_hd__buf_1
*CAP
1 B[1] 0.000490205
2 *152:A 0.000490205
3 *152:A P[2] 0
4 *152:A *155:A 0
*RES
1 B[1] *152:A 48.73 
*END

*D_NET *5 0.00100267
*CONN
*P P[0] O
*I *153:X O *D sky130_fd_sc_hd__buf_2
*CAP
1 P[0] 0.000496527
2 *153:X 0.000496527
3 P[0] *17:10 9.61703e-06
4 *149:A P[0] 0
5 *150:A P[0] 0
*RES
1 *153:X P[0] 47.57 
*END

*D_NET *6 0.000988375
*CONN
*P P[1] O
*I *154:X O *D sky130_fd_sc_hd__buf_2
*CAP
1 P[1] 0.0004911
2 *154:X 0.0004911
3 P[1] *154:A 6.17437e-06
4 *149:A P[1] 0
5 *151:A P[1] 0
*RES
1 *154:X P[1] 47.86 
*END

*D_NET *7 0.00100297
*CONN
*P P[2] O
*I *155:X O *D sky130_fd_sc_hd__buf_2
*CAP
1 P[2] 0.000501485
2 *155:X 0.000501485
3 P[2] P[3] 0
4 *152:A P[2] 0
*RES
1 *155:X P[2] 48.9786 
*END

*D_NET *8 0.00100297
*CONN
*P P[3] O
*I *156:X O *D sky130_fd_sc_hd__buf_2
*CAP
1 P[3] 0.000501485
2 *156:X 0.000501485
3 P[2] P[3] 0
*RES
1 *156:X P[3] 48.9786 
*END

*D_NET *11 0.00347915
*CONN
*I *148:B1 I *D sky130_fd_sc_hd__a31o_1
*I *144:B1 I *D sky130_fd_sc_hd__a21oi_1
*I *143:A I *D sky130_fd_sc_hd__nor2_1
*I *141:X O *D sky130_fd_sc_hd__and4bb_1
*CAP
1 *148:B1 0.000402479
2 *144:B1 0.000124727
3 *143:A 0.000152095
4 *141:X 0.000376294
5 *11:10 0.000472699
6 *11:8 0.000974649
7 *143:A *144:A2 0.000306509
8 *143:A *16:16 0.000361514
9 *143:A *17:14 9.84794e-05
10 *144:B1 *144:A1 5.56356e-05
11 *148:B1 *14:12 8.16356e-05
12 *11:8 *19:18 7.24365e-05
*RES
1 *141:X *11:8 44.3386 
2 *11:8 *11:10 3.13821 
3 *11:10 *143:A 43.3754 
4 *11:10 *144:B1 40.0404 
5 *11:8 *148:B1 45.8921 
*END

*D_NET *12 0.000310731
*CONN
*I *143:B I *D sky130_fd_sc_hd__nor2_1
*I *142:X O *D sky130_fd_sc_hd__o2bb2a_1
*CAP
1 *143:B 1.49804e-05
2 *142:X 8.39916e-05
3 *12:8 9.89719e-05
4 *143:B *16:16 5.50106e-05
5 *143:B *17:14 5.50106e-05
6 *12:8 *16:24 2.76611e-06
7 *12:8 *17:10 0
8 *12:8 *20:10 0
*RES
1 *142:X *12:8 39.2014 
2 *12:8 *143:B 38.6214 
*END

*D_NET *13 0.00147692
*CONN
*I *146:A I *D sky130_fd_sc_hd__inv_2
*I *148:A2 I *D sky130_fd_sc_hd__a31o_1
*I *145:Y O *D sky130_fd_sc_hd__nand3b_1
*CAP
1 *146:A 0
2 *148:A2 0
3 *145:Y 6.1899e-05
4 *13:23 0.000446712
5 *13:6 0.00050861
6 *13:6 *148:A1 6.23033e-05
7 *13:6 *22:8 8.16279e-05
8 *13:23 *148:A1 1.5769e-05
9 *13:23 *155:A 0.000292467
10 *13:23 *19:10 0
11 *13:23 *22:8 7.53384e-06
*RES
1 *145:Y *13:6 25.0507 
2 *13:6 *148:A2 23 
3 *13:6 *13:23 40.1086 
4 *13:23 *146:A 23 
*END

*D_NET *14 0.000523671
*CONN
*I *148:A3 I *D sky130_fd_sc_hd__a31o_1
*I *147:Y O *D sky130_fd_sc_hd__nand2b_1
*CAP
1 *148:A3 0
2 *147:Y 0.000221018
3 *14:12 0.000221018
4 *14:12 *19:12 0
5 *148:B1 *14:12 8.16356e-05
*RES
1 *147:Y *14:12 41.9771 
2 *14:12 *148:A3 38 
*END

*D_NET *15 0.000361352
*CONN
*I *144:A1 I *D sky130_fd_sc_hd__a21oi_1
*I *140:Y O *D sky130_fd_sc_hd__inv_2
*CAP
1 *144:A1 5.72311e-05
2 *140:Y 5.72311e-05
3 *144:A1 *18:21 0.000191255
4 *144:B1 *144:A1 5.56356e-05
*RES
1 *140:Y *144:A1 48.0507 
*END

*D_NET *16 0.00178361
*CONN
*I *142:A1_N I *D sky130_fd_sc_hd__o2bb2a_1
*I *141:C I *D sky130_fd_sc_hd__and4bb_1
*I *149:X O *D sky130_fd_sc_hd__clkbuf_1
*CAP
1 *142:A1_N 0
2 *141:C 0
3 *149:X 0.000115141
4 *16:24 0.000108847
5 *16:16 0.000376205
6 *16:8 0.000382498
7 *16:8 *21:8 0
8 *16:16 *142:B1 0
9 *16:16 *17:14 8.64663e-05
10 *16:16 *20:10 7.88828e-05
11 *16:24 *17:14 8.2891e-05
12 *16:24 *17:47 0
13 *16:24 *18:25 8.85189e-05
14 *16:24 *19:31 4.48671e-05
15 *143:A *16:16 0.000361514
16 *143:B *16:16 5.50106e-05
17 *12:8 *16:24 2.76611e-06
*RES
1 *149:X *16:8 39.9057 
2 *16:8 *16:16 21.6752 
3 *16:16 *16:24 32.8327 
4 *16:24 *141:C 23 
5 *16:16 *142:A1_N 23 
*END

*D_NET *17 0.00561878
*CONN
*I *148:A1 I *D sky130_fd_sc_hd__a31o_1
*I *145:B I *D sky130_fd_sc_hd__nand3b_1
*I *144:A2 I *D sky130_fd_sc_hd__a21oi_1
*I *142:B1 I *D sky130_fd_sc_hd__o2bb2a_1
*I *141:A_N I *D sky130_fd_sc_hd__and4bb_1
*I *150:X O *D sky130_fd_sc_hd__buf_1
*CAP
1 *148:A1 0.000310664
2 *145:B 4.58709e-05
3 *144:A2 0.000102433
4 *142:B1 2.34823e-05
5 *141:A_N 0
6 *150:X 0.000388618
7 *17:47 0.000822981
8 *17:22 0.000183539
9 *17:14 0.000406588
10 *17:12 0.000302
11 *17:10 0.000855064
12 *144:A2 *18:21 0.000362421
13 *17:10 *20:10 8.4047e-05
14 *17:14 *18:21 0.000315852
15 *17:22 *18:38 0
16 *17:22 *19:31 6.7911e-05
17 *17:47 *18:25 0
18 *17:47 *18:38 0
19 *17:47 *19:12 0.000169683
20 *17:47 *19:18 0.000460577
21 P[0] *17:10 9.61703e-06
22 *143:A *144:A2 0.000306509
23 *143:A *17:14 9.84794e-05
24 *143:B *17:14 5.50106e-05
25 *12:8 *17:10 0
26 *13:6 *148:A1 6.23033e-05
27 *13:23 *148:A1 1.5769e-05
28 *16:16 *142:B1 0
29 *16:16 *17:14 8.64663e-05
30 *16:24 *17:14 8.2891e-05
31 *16:24 *17:47 0
*RES
1 *150:X *17:10 43.6136 
2 *17:10 *17:12 15 
3 *17:12 *17:14 5.86214 
4 *17:14 *17:22 33.5836 
5 *17:22 *141:A_N 23 
6 *17:14 *142:B1 23.4971 
7 *17:12 *144:A2 27.4536 
8 *17:10 *17:47 25.005 
9 *17:47 *145:B 24.2014 
10 *17:47 *148:A1 27.3293 
*END

*D_NET *18 0.00480491
*CONN
*I *142:A2_N I *D sky130_fd_sc_hd__o2bb2a_1
*I *147:B I *D sky130_fd_sc_hd__nand2b_1
*I *145:A_N I *D sky130_fd_sc_hd__nand3b_1
*I *141:D I *D sky130_fd_sc_hd__and4bb_1
*I *140:A I *D sky130_fd_sc_hd__inv_2
*I *151:X O *D sky130_fd_sc_hd__buf_1
*CAP
1 *142:A2_N 0
2 *147:B 0.000130414
3 *145:A_N 0
4 *141:D 0
5 *140:A 0
6 *151:X 0.000126759
7 *18:44 0.000124146
8 *18:38 0.000735484
9 *18:25 0.000536998
10 *18:21 0.000726375
11 *18:12 0.00083803
12 *18:8 0.000294488
13 *147:B *147:A_N 5.3304e-05
14 *18:38 *19:18 0
15 *18:38 *19:31 0
16 *18:44 *19:12 0.000243847
17 *18:44 *19:18 3.70187e-05
18 *144:A1 *18:21 0.000191255
19 *144:A2 *18:21 0.000362421
20 *16:24 *18:25 8.85189e-05
21 *17:14 *18:21 0.000315852
22 *17:22 *18:38 0
23 *17:47 *18:25 0
24 *17:47 *18:38 0
*RES
1 *151:X *18:8 40.2579 
2 *18:8 *18:12 18.0036 
3 *18:12 *140:A 23 
4 *18:12 *18:21 10.9993 
5 *18:21 *18:25 16.2014 
6 *18:25 *141:D 38 
7 *18:25 *18:38 23.6586 
8 *18:38 *18:44 33.6664 
9 *18:44 *145:A_N 23 
10 *18:38 *147:B 25.2216 
11 *18:21 *142:A2_N 23 
*END

*D_NET *19 0.00410947
*CONN
*I *145:C I *D sky130_fd_sc_hd__nand3b_1
*I *147:A_N I *D sky130_fd_sc_hd__nand2b_1
*I *142:B2 I *D sky130_fd_sc_hd__o2bb2a_1
*I *141:B_N I *D sky130_fd_sc_hd__and4bb_1
*I *152:X O *D sky130_fd_sc_hd__buf_1
*CAP
1 *145:C 0
2 *147:A_N 3.6708e-05
3 *142:B2 0
4 *141:B_N 8.15719e-05
5 *152:X 0.000629759
6 *19:31 0.000110879
7 *19:18 0.000700183
8 *19:12 0.000657701
9 *19:10 0.000743019
10 *19:10 *155:A 0
11 *147:B *147:A_N 5.3304e-05
12 *11:8 *19:18 7.24365e-05
13 *13:23 *19:10 0
14 *14:12 *19:12 0
15 *16:24 *19:31 4.48671e-05
16 *17:22 *19:31 6.7911e-05
17 *17:47 *19:12 0.000169683
18 *17:47 *19:18 0.000460577
19 *18:38 *19:18 0
20 *18:38 *19:31 0
21 *18:44 *19:12 0.000243847
22 *18:44 *19:18 3.70187e-05
*RES
1 *152:X *19:10 49.455 
2 *19:10 *19:12 3.31429 
3 *19:12 *19:18 26.0407 
4 *19:18 *141:B_N 24.0979 
5 *19:18 *19:31 32.2579 
6 *19:31 *142:B2 23 
7 *19:12 *147:A_N 38.6214 
8 *19:10 *145:C 38 
*END

*D_NET *20 0.000598079
*CONN
*I *153:A I *D sky130_fd_sc_hd__buf_2
*I *143:Y O *D sky130_fd_sc_hd__nor2_1
*CAP
1 *153:A 0
2 *143:Y 0.000217574
3 *20:10 0.000217574
4 *149:A *20:10 0
5 *12:8 *20:10 0
6 *16:16 *20:10 7.88828e-05
7 *17:10 *20:10 8.4047e-05
*RES
1 *143:Y *20:10 41.8321 
2 *20:10 *153:A 38 
*END

*D_NET *21 0.000413511
*CONN
*I *154:A I *D sky130_fd_sc_hd__buf_2
*I *144:Y O *D sky130_fd_sc_hd__a21oi_1
*CAP
1 *154:A 7.64316e-05
2 *144:Y 0.000127237
3 *21:8 0.000203668
4 P[1] *154:A 6.17437e-06
5 *16:8 *21:8 0
*RES
1 *144:Y *21:8 40.2579 
2 *21:8 *154:A 39.0979 
*END

*D_NET *22 0.0014977
*CONN
*I *155:A I *D sky130_fd_sc_hd__buf_2
*I *148:X O *D sky130_fd_sc_hd__a31o_1
*CAP
1 *155:A 0.000456239
2 *148:X 0.000101799
3 *22:8 0.000558038
4 *155:A *23:10 0
5 *152:A *155:A 0
6 *13:6 *22:8 8.16279e-05
7 *13:23 *155:A 0.000292467
8 *13:23 *22:8 7.53384e-06
9 *19:10 *155:A 0
*RES
1 *148:X *22:8 39.5743 
2 *22:8 *155:A 48.7093 
*END

*D_NET *23 0.000532982
*CONN
*I *156:A I *D sky130_fd_sc_hd__buf_2
*I *146:Y O *D sky130_fd_sc_hd__inv_2
*CAP
1 *156:A 0
2 *146:Y 0.000266491
3 *23:10 0.000266491
4 *155:A *23:10 0
*RES
1 *146:Y *23:10 41.8321 
2 *23:10 *156:A 38 
*END
