*SPEF "ieee 1481-1999"
*DESIGN "SARSANSTEPS_VENTAJA_e7"
*DATE "13:53:14 Tuesday September 16, 2025"
*VENDOR "The OpenROAD Project"
*PROGRAM "OpenROAD"
*VERSION "edf00dff99f6c40d67a30c0e22a8191c5d2ed9d6"
*DESIGN_FLOW "NAME_SCOPE LOCAL" "PIN_CAP NONE"
*DIVIDER /
*DELIMITER :
*BUS_DELIMITER []
*T_UNIT 1 NS
*C_UNIT 1 PF
*R_UNIT 1 OHM
*L_UNIT 1 HENRY

*NAME_MAP
*1 A[0]
*2 A[1]
*3 B[0]
*4 B[1]
*5 P[0]
*6 P[1]
*7 P[2]
*8 net8
*11 net1
*12 net2
*13 net3
*14 net4
*15 net5
*16 net6
*17 net7
*18 FILLER_0_15
*19 FILLER_0_27
*20 FILLER_0_29
*21 FILLER_0_3
*22 FILLER_0_41
*23 FILLER_0_53
*24 FILLER_0_57
*25 FILLER_0_69
*26 FILLER_1_15
*27 FILLER_1_27
*28 FILLER_1_3
*29 FILLER_1_39
*30 FILLER_1_51
*31 FILLER_1_55
*32 FILLER_1_57
*33 FILLER_1_69
*34 FILLER_2_18
*35 FILLER_2_26
*36 FILLER_2_29
*37 FILLER_2_41
*38 FILLER_2_53
*39 FILLER_2_6
*40 FILLER_2_65
*41 FILLER_2_77
*42 FILLER_3_11
*43 FILLER_3_17
*44 FILLER_3_29
*45 FILLER_3_3
*46 FILLER_3_41
*47 FILLER_3_53
*48 FILLER_3_57
*49 FILLER_3_69
*50 FILLER_4_26
*51 FILLER_4_29
*52 FILLER_4_41
*53 FILLER_4_53
*54 FILLER_4_6
*55 FILLER_4_65
*56 FILLER_5_19
*57 FILLER_5_31
*58 FILLER_5_43
*59 FILLER_5_55
*60 FILLER_5_57
*61 FILLER_5_69
*62 FILLER_5_7
*63 FILLER_6_18
*64 FILLER_6_26
*65 FILLER_6_29
*66 FILLER_6_41
*67 FILLER_6_53
*68 FILLER_6_6
*69 FILLER_6_65
*70 FILLER_6_77
*71 FILLER_7_18
*72 FILLER_7_30
*73 FILLER_7_42
*74 FILLER_7_54
*75 FILLER_7_57
*76 FILLER_7_6
*77 FILLER_7_69
*78 FILLER_8_15
*79 FILLER_8_27
*80 FILLER_8_29
*81 FILLER_8_3
*82 FILLER_8_41
*83 FILLER_8_53
*84 FILLER_8_65
*85 FILLER_8_77
*86 FILLER_9_15
*87 FILLER_9_27
*88 FILLER_9_29
*89 FILLER_9_3
*90 FILLER_9_41
*91 FILLER_9_53
*92 FILLER_9_57
*93 FILLER_9_69
*94 PHY_EDGE_ROW_0_Left_10
*95 PHY_EDGE_ROW_0_Right_0
*96 PHY_EDGE_ROW_1_Left_11
*97 PHY_EDGE_ROW_1_Right_1
*98 PHY_EDGE_ROW_2_Left_12
*99 PHY_EDGE_ROW_2_Right_2
*100 PHY_EDGE_ROW_3_Left_13
*101 PHY_EDGE_ROW_3_Right_3
*102 PHY_EDGE_ROW_4_Left_14
*103 PHY_EDGE_ROW_4_Right_4
*104 PHY_EDGE_ROW_5_Left_15
*105 PHY_EDGE_ROW_5_Right_5
*106 PHY_EDGE_ROW_6_Left_16
*107 PHY_EDGE_ROW_6_Right_6
*108 PHY_EDGE_ROW_7_Left_17
*109 PHY_EDGE_ROW_7_Right_7
*110 PHY_EDGE_ROW_8_Left_18
*111 PHY_EDGE_ROW_8_Right_8
*112 PHY_EDGE_ROW_9_Left_19
*113 PHY_EDGE_ROW_9_Right_9
*114 SARSANSTEPS_VENTAJA_e7_8
*115 TAP_TAPCELL_ROW_0_20
*116 TAP_TAPCELL_ROW_0_21
*117 TAP_TAPCELL_ROW_1_22
*118 TAP_TAPCELL_ROW_2_23
*119 TAP_TAPCELL_ROW_3_24
*120 TAP_TAPCELL_ROW_4_25
*121 TAP_TAPCELL_ROW_5_26
*122 TAP_TAPCELL_ROW_6_27
*123 TAP_TAPCELL_ROW_7_28
*124 TAP_TAPCELL_ROW_8_29
*125 TAP_TAPCELL_ROW_9_30
*126 TAP_TAPCELL_ROW_9_31
*127 _0_
*128 _1_
*129 _2_
*130 input1
*131 input2
*132 input3
*133 input4
*134 output5
*135 output6
*136 output7

*PORTS
A[0] I
A[1] I
B[0] I
B[1] I
P[0] O
P[1] O
P[2] O
P[3] O

*D_NET *1 0.000618322
*CONN
*P A[0] I
*I *130:A I *D sky130_fd_sc_hd__buf_1
*CAP
1 A[0] 0.000295572
2 *130:A 0.000295572
3 *130:A *133:A 2.71788e-05
*RES
1 A[0] *130:A 20.7838 
*END

*D_NET *2 0.000574322
*CONN
*P A[1] I
*I *131:A I *D sky130_fd_sc_hd__clkbuf_1
*CAP
1 A[1] 0.000275863
2 *131:A 0.000275863
3 *131:A *132:A 2.25951e-05
*RES
1 A[1] *131:A 20.4803 
*END

*D_NET *3 0.000530582
*CONN
*P B[0] I
*I *132:A I *D sky130_fd_sc_hd__buf_1
*CAP
1 B[0] 0.00022113
2 *132:A 0.00022113
3 *132:A P[1] 2.87684e-05
4 *132:A *12:12 3.69573e-05
5 *131:A *132:A 2.25951e-05
*RES
1 B[0] *132:A 18.73 
*END

*D_NET *4 0.000699525
*CONN
*P B[1] I
*I *133:A I *D sky130_fd_sc_hd__clkbuf_1
*CAP
1 B[1] 0.000321177
2 *133:A 0.000321177
3 *133:A P[1] 2.99915e-05
4 *133:A *128:B 0
5 *130:A *133:A 2.71788e-05
*RES
1 B[1] *133:A 21.6946 
*END

*D_NET *5 0.000641197
*CONN
*P P[0] O
*I *134:X O *D sky130_fd_sc_hd__buf_2
*CAP
1 P[0] 0.00024312
2 *134:X 0.00024312
3 P[0] P[2] 9.28756e-05
4 P[0] *17:12 6.20827e-05
*RES
1 *134:X P[0] 19.4092 
*END

*D_NET *6 0.000725588
*CONN
*P P[1] O
*I *135:X O *D sky130_fd_sc_hd__buf_2
*CAP
1 P[1] 0.000333414
2 *135:X 0.000333414
3 *132:A P[1] 2.87684e-05
4 *133:A P[1] 2.99915e-05
*RES
1 *135:X P[1] 20.891 
*END

*D_NET *7 0.000577641
*CONN
*P P[2] O
*I *136:X O *D sky130_fd_sc_hd__buf_2
*CAP
1 P[2] 0.000182245
2 *136:X 0.000182245
3 P[2] P[3] 8.57347e-05
4 P[2] *17:12 3.454e-05
5 P[0] P[2] 9.28756e-05
*RES
1 *136:X P[2] 18.8021 
*END

*D_NET *8 0.000498111
*CONN
*P P[3] O
*I *114:LO O *D sky130_fd_sc_hd__conb_1
*CAP
1 P[3] 0.000206188
2 *114:LO 0.000206188
3 P[2] P[3] 8.57347e-05
*RES
1 *114:LO P[3] 18.73 
*END

*D_NET *11 0.00168367
*CONN
*I *129:A I *D sky130_fd_sc_hd__xnor2_1
*I *127:A0 I *D sky130_fd_sc_hd__mux2_1
*I *130:X O *D sky130_fd_sc_hd__buf_1
*CAP
1 *129:A 0.00016834
2 *127:A0 0
3 *130:X 0.000510308
4 *11:12 0.000678648
5 *129:A *127:A1 5.71472e-05
6 *129:A *129:B 0.000188586
7 *11:12 *128:A 8.06427e-05
*RES
1 *130:X *11:12 25.5857 
2 *11:12 *127:A0 9.3 
3 *11:12 *129:A 13.0321 
*END

*D_NET *12 0.00170046
*CONN
*I *127:A1 I *D sky130_fd_sc_hd__mux2_1
*I *128:A I *D sky130_fd_sc_hd__and2_1
*I *131:X O *D sky130_fd_sc_hd__clkbuf_1
*CAP
1 *127:A1 7.09982e-05
2 *128:A 0.000147805
3 *131:X 0.000544055
4 *12:12 0.000762858
5 *128:A *128:B 0
6 *12:12 *135:A 0
7 *129:A *127:A1 5.71472e-05
8 *132:A *12:12 3.69573e-05
9 *11:12 *128:A 8.06427e-05
*RES
1 *131:X *12:12 27.8 
2 *12:12 *128:A 21.1571 
3 *12:12 *127:A1 10.6571 
*END

*D_NET *13 0.00161032
*CONN
*I *129:B I *D sky130_fd_sc_hd__xnor2_1
*I *127:S I *D sky130_fd_sc_hd__mux2_1
*I *132:X O *D sky130_fd_sc_hd__buf_1
*CAP
1 *129:B 6.86241e-05
2 *127:S 0
3 *132:X 0.000642243
4 *13:12 0.000710868
5 *13:12 *135:A 0
6 *129:A *129:B 0.000188586
*RES
1 *132:X *13:12 27.0143 
2 *13:12 *127:S 9.3 
3 *13:12 *129:B 11.0679 
*END

*D_NET *14 0.000665975
*CONN
*I *128:B I *D sky130_fd_sc_hd__and2_1
*I *133:X O *D sky130_fd_sc_hd__clkbuf_1
*CAP
1 *128:B 0.000332988
2 *133:X 0.000332988
3 *128:A *128:B 0
4 *133:A *128:B 0
*RES
1 *133:X *128:B 33.0643 
*END

*D_NET *15 0.0028206
*CONN
*I *134:A I *D sky130_fd_sc_hd__buf_2
*I *129:Y O *D sky130_fd_sc_hd__xnor2_1
*CAP
1 *134:A 0.0014103
2 *129:Y 0.0014103
*RES
1 *129:Y *134:A 40.9393 
*END

*D_NET *16 0.000441978
*CONN
*I *135:A I *D sky130_fd_sc_hd__buf_2
*I *127:X O *D sky130_fd_sc_hd__mux2_1
*CAP
1 *135:A 0.000220989
2 *127:X 0.000220989
3 *12:12 *135:A 0
4 *13:12 *135:A 0
*RES
1 *127:X *135:A 31.3143 
*END

*D_NET *17 0.00363459
*CONN
*I *136:A I *D sky130_fd_sc_hd__buf_2
*I *128:X O *D sky130_fd_sc_hd__and2_1
*CAP
1 *136:A 0
2 *128:X 0.00176898
3 *17:12 0.00176898
4 P[0] *17:12 6.20827e-05
5 P[2] *17:12 3.454e-05
*RES
1 *128:X *17:12 48.4607 
2 *17:12 *136:A 9.3 
*END
