*SPEF "ieee 1481-1999"
*DESIGN "mult4_SARSA_WInd_e9_SARSA_RUIDO_e9_SARSA_RUIDO_e9_SARSA_RUIDO_e9"
*DATE "14:31:14 Tuesday September 16, 2025"
*VENDOR "The OpenROAD Project"
*PROGRAM "OpenROAD"
*VERSION "edf00dff99f6c40d67a30c0e22a8191c5d2ed9d6"
*DESIGN_FLOW "NAME_SCOPE LOCAL" "PIN_CAP NONE"
*DIVIDER /
*DELIMITER :
*BUS_DELIMITER []
*T_UNIT 1 NS
*C_UNIT 1 PF
*R_UNIT 1 OHM
*L_UNIT 1 HENRY

*NAME_MAP
*1 A[0]
*2 A[1]
*3 A[2]
*4 A[3]
*5 B[0]
*6 B[1]
*7 B[2]
*8 B[3]
*9 P[0]
*10 P[1]
*11 P[2]
*12 P[3]
*13 P[4]
*14 P[5]
*15 P[6]
*16 P[7]
*19 _00_
*20 _01_
*21 _02_
*22 _03_
*23 _04_
*24 _05_
*25 _06_
*26 _07_
*27 _08_
*28 _09_
*29 _10_
*30 _11_
*31 _12_
*32 _13_
*33 _14_
*34 _15_
*35 _16_
*36 _17_
*37 _18_
*38 _19_
*39 _20_
*40 _21_
*41 _22_
*42 mul_ll\.pp0
*43 net1
*44 net10
*45 net11
*46 net12
*47 net13
*48 net14
*49 net15
*50 net16
*51 net2
*52 net3
*53 net4
*54 net5
*55 net6
*56 net7
*57 net8
*58 net9
*59 FILLER_0_15
*60 FILLER_0_27
*61 FILLER_0_29
*62 FILLER_0_3
*63 FILLER_0_34
*64 FILLER_0_42
*65 FILLER_0_49
*66 FILLER_0_55
*67 FILLER_0_57
*68 FILLER_0_63
*69 FILLER_0_75
*70 FILLER_1_15
*71 FILLER_1_27
*72 FILLER_1_3
*73 FILLER_1_35
*74 FILLER_1_44
*75 FILLER_1_50
*76 FILLER_1_66
*77 FILLER_1_74
*78 FILLER_2_19
*79 FILLER_2_24
*80 FILLER_2_29
*81 FILLER_2_38
*82 FILLER_2_7
*83 FILLER_2_70
*84 FILLER_2_76
*85 FILLER_3_15
*86 FILLER_3_3
*87 FILLER_3_34
*88 FILLER_3_46
*89 FILLER_3_54
*90 FILLER_3_57
*91 FILLER_3_69
*92 FILLER_4_19
*93 FILLER_4_27
*94 FILLER_4_29
*95 FILLER_4_37
*96 FILLER_4_49
*97 FILLER_4_61
*98 FILLER_4_7
*99 FILLER_4_74
*100 FILLER_5_15
*101 FILLER_5_22
*102 FILLER_5_34
*103 FILLER_5_46
*104 FILLER_5_54
*105 FILLER_5_68
*106 FILLER_5_7
*107 FILLER_5_76
*108 FILLER_6_15
*109 FILLER_6_40
*110 FILLER_6_52
*111 FILLER_6_68
*112 FILLER_6_7
*113 FILLER_6_76
*114 FILLER_7_15
*115 FILLER_7_27
*116 FILLER_7_3
*117 FILLER_7_43
*118 FILLER_7_55
*119 FILLER_7_57
*120 FILLER_7_65
*121 FILLER_7_74
*122 FILLER_8_15
*123 FILLER_8_27
*124 FILLER_8_3
*125 FILLER_8_36
*126 FILLER_8_48
*127 FILLER_8_60
*128 FILLER_8_70
*129 FILLER_8_78
*130 FILLER_9_15
*131 FILLER_9_23
*132 FILLER_9_29
*133 FILLER_9_3
*134 FILLER_9_41
*135 FILLER_9_53
*136 FILLER_9_57
*137 FILLER_9_69
*138 PHY_EDGE_ROW_0_Left_10
*139 PHY_EDGE_ROW_0_Right_0
*140 PHY_EDGE_ROW_1_Left_11
*141 PHY_EDGE_ROW_1_Right_1
*142 PHY_EDGE_ROW_2_Left_12
*143 PHY_EDGE_ROW_2_Right_2
*144 PHY_EDGE_ROW_3_Left_13
*145 PHY_EDGE_ROW_3_Right_3
*146 PHY_EDGE_ROW_4_Left_14
*147 PHY_EDGE_ROW_4_Right_4
*148 PHY_EDGE_ROW_5_Left_15
*149 PHY_EDGE_ROW_5_Right_5
*150 PHY_EDGE_ROW_6_Left_16
*151 PHY_EDGE_ROW_6_Right_6
*152 PHY_EDGE_ROW_7_Left_17
*153 PHY_EDGE_ROW_7_Right_7
*154 PHY_EDGE_ROW_8_Left_18
*155 PHY_EDGE_ROW_8_Right_8
*156 PHY_EDGE_ROW_9_Left_19
*157 PHY_EDGE_ROW_9_Right_9
*158 TAP_TAPCELL_ROW_0_20
*159 TAP_TAPCELL_ROW_0_21
*160 TAP_TAPCELL_ROW_1_22
*161 TAP_TAPCELL_ROW_2_23
*162 TAP_TAPCELL_ROW_3_24
*163 TAP_TAPCELL_ROW_4_25
*164 TAP_TAPCELL_ROW_5_26
*165 TAP_TAPCELL_ROW_6_27
*166 TAP_TAPCELL_ROW_7_28
*167 TAP_TAPCELL_ROW_8_29
*168 TAP_TAPCELL_ROW_9_30
*169 TAP_TAPCELL_ROW_9_31
*170 _23_
*171 _24_
*172 _25_
*173 _26_
*174 _27_
*175 _28_
*176 _29_
*177 _30_
*178 _31_
*179 _32_
*180 _33_
*181 _34_
*182 _35_
*183 _36_
*184 _37_
*185 _38_
*186 _39_
*187 _40_
*188 _41_
*189 _42_
*190 _43_
*191 _44_
*192 _45_
*193 _46_
*194 _47_
*195 _48_
*196 _49_
*197 _50_
*198 _51_
*199 _52_
*200 _53_
*201 _54_
*202 input1
*203 input2
*204 input3
*205 input4
*206 input5
*207 input6
*208 input7
*209 input8
*210 output10
*211 output11
*212 output12
*213 output13
*214 output14
*215 output15
*216 output16
*217 output9

*PORTS
A[0] I
A[1] I
A[2] I
A[3] I
B[0] I
B[1] I
B[2] I
B[3] I
P[0] O
P[1] O
P[2] O
P[3] O
P[4] O
P[5] O
P[6] O
P[7] O

*D_NET *1 0.000846379
*CONN
*P A[0] I
*I *202:A I *D sky130_fd_sc_hd__buf_1
*CAP
1 A[0] 0.000413544
2 *202:A 0.000413544
3 *202:A *43:10 1.92905e-05
*RES
1 A[0] *202:A 21.8357 
*END

*D_NET *2 0.000630141
*CONN
*P A[1] I
*I *203:A I *D sky130_fd_sc_hd__buf_1
*CAP
1 A[1] 0.000218483
2 *203:A 0.000218483
3 *203:A *205:A 8.31618e-05
4 *203:A *208:A 8.31618e-05
5 *203:A *56:14 2.68527e-05
6 *203:A *57:77 0
*RES
1 A[1] *203:A 19.6407 
*END

*D_NET *3 0.000719045
*CONN
*P A[2] I
*I *204:A I *D sky130_fd_sc_hd__clkbuf_2
*CAP
1 A[2] 0.000330142
2 *204:A 0.000330142
3 *204:A P[4] 2.87684e-05
4 *204:A *209:A 2.99915e-05
*RES
1 A[2] *204:A 21.8017 
*END

*D_NET *4 0.000507068
*CONN
*P A[3] I
*I *205:A I *D sky130_fd_sc_hd__buf_1
*CAP
1 A[3] 0.000173645
2 *205:A 0.000173645
3 *205:A P[7] 7.66163e-05
4 *205:A *57:77 0
5 *203:A *205:A 8.31618e-05
*RES
1 A[3] *205:A 18.73 
*END

*D_NET *5 0.00084981
*CONN
*P B[0] I
*I *206:A I *D sky130_fd_sc_hd__clkbuf_1
*CAP
1 B[0] 0.00041526
2 *206:A 0.00041526
3 *206:A P[0] 0
4 *206:A P[2] 0
5 *206:A *54:10 1.92905e-05
*RES
1 B[0] *206:A 21.8357 
*END

*D_NET *6 0.000592604
*CONN
*P B[1] I
*I *207:A I *D sky130_fd_sc_hd__clkbuf_2
*CAP
1 B[1] 0.000254277
2 *207:A 0.000254277
3 *207:A P[1] 8.40493e-05
*RES
1 B[1] *207:A 19.1056 
*END

*D_NET *7 0.000651024
*CONN
*P B[2] I
*I *208:A I *D sky130_fd_sc_hd__buf_1
*CAP
1 B[2] 0.000241064
2 *208:A 0.000241064
3 *208:A P[1] 8.57347e-05
4 *208:A *57:77 0
5 *203:A *208:A 8.31618e-05
*RES
1 B[2] *208:A 19.9443 
*END

*D_NET *8 0.000730302
*CONN
*P B[3] I
*I *209:A I *D sky130_fd_sc_hd__clkbuf_2
*CAP
1 B[3] 0.000335159
2 *209:A 0.000335159
3 *209:A P[3] 2.99915e-05
4 *204:A *209:A 2.99915e-05
*RES
1 B[3] *209:A 21.8017 
*END

*D_NET *9 0.000876077
*CONN
*P P[0] O
*I *217:X O *D sky130_fd_sc_hd__buf_2
*CAP
1 P[0] 0.000438039
2 *217:X 0.000438039
3 *206:A P[0] 0
*RES
1 *217:X P[0] 21.6393 
*END

*D_NET *10 0.00052717
*CONN
*P P[1] O
*I *210:X O *D sky130_fd_sc_hd__buf_2
*CAP
1 P[1] 0.000178693
2 *210:X 0.000178693
3 *207:A P[1] 8.40493e-05
4 *208:A P[1] 8.57347e-05
*RES
1 *210:X P[1] 18.4985 
*END

*D_NET *11 0.000937294
*CONN
*P P[2] O
*I *211:X O *D sky130_fd_sc_hd__buf_2
*CAP
1 P[2] 0.000468647
2 *211:X 0.000468647
3 *206:A P[2] 0
*RES
1 *211:X P[2] 22.3 
*END

*D_NET *12 0.000635508
*CONN
*P P[3] O
*I *212:X O *D sky130_fd_sc_hd__buf_2
*CAP
1 P[3] 0.000302758
2 *212:X 0.000302758
3 *209:A P[3] 2.99915e-05
*RES
1 *212:X P[3] 20.891 
*END

*D_NET *13 0.000519464
*CONN
*P P[4] O
*I *213:X O *D sky130_fd_sc_hd__buf_2
*CAP
1 P[4] 0.000245348
2 *213:X 0.000245348
3 *204:A P[4] 2.87684e-05
*RES
1 *213:X P[4] 18.1949 
*END

*D_NET *14 0.000911701
*CONN
*P P[5] O
*I *214:X O *D sky130_fd_sc_hd__buf_2
*CAP
1 P[5] 0.00045585
2 *214:X 0.00045585
*RES
1 *214:X P[5] 22.8536 
*END

*D_NET *15 0.000624608
*CONN
*P P[6] O
*I *215:X O *D sky130_fd_sc_hd__buf_2
*CAP
1 P[6] 0.000265866
2 *215:X 0.000265866
3 P[6] P[7] 9.28756e-05
4 P[6] *215:A 0
*RES
1 *215:X P[6] 19.4092 
*END

*D_NET *16 0.000497934
*CONN
*P P[7] O
*I *216:X O *D sky130_fd_sc_hd__buf_2
*CAP
1 P[7] 0.000164221
2 *216:X 0.000164221
3 P[7] *177:B 0
4 P[6] P[7] 9.28756e-05
5 *205:A P[7] 7.66163e-05
*RES
1 *216:X P[7] 18.1949 
*END

*D_NET *19 0.00366444
*CONN
*I *174:B1 I *D sky130_fd_sc_hd__o2bb2a_1
*I *173:A_N I *D sky130_fd_sc_hd__and4bb_1
*I *198:B1 I *D sky130_fd_sc_hd__a211oi_1
*I *185:A1 I *D sky130_fd_sc_hd__o211a_1
*I *171:X O *D sky130_fd_sc_hd__and4_1
*CAP
1 *174:B1 0
2 *173:A_N 2.23854e-05
3 *198:B1 0.000474637
4 *185:A1 7.32744e-05
5 *171:X 0.00014359
6 *19:12 0.0007279
7 *19:8 0.000380771
8 *19:6 0.000321987
9 *185:A1 *185:C1 1.32056e-05
10 *185:A1 *198:A2 0.000185118
11 *185:A1 *21:8 0.000137669
12 *185:A1 *52:50 6.05161e-06
13 *198:B1 *182:A 6.8445e-06
14 *198:B1 *198:A2 0.000113387
15 *198:B1 *198:C1 9.71197e-05
16 *198:B1 *32:23 7.6644e-05
17 *19:6 *171:A 1.39726e-05
18 *19:6 *55:20 0.00017301
19 *19:6 *55:30 1.74352e-05
20 *19:8 *171:A 1.56e-05
21 *19:8 *173:B_N 0.000105941
22 *19:8 *173:C 4.18895e-05
23 *19:8 *174:A1_N 0.000111777
24 *19:12 *173:C 0.000232124
25 *19:12 *21:8 9.83442e-05
26 *19:12 *52:50 5.82711e-05
27 *19:12 *52:57 1.54969e-05
*RES
1 *171:X *19:6 12.3 
2 *19:6 *19:8 3.82143 
3 *19:8 *19:12 4.66071 
4 *19:12 *185:A1 11.8893 
5 *19:12 *198:B1 24.4786 
6 *19:8 *173:A_N 9.72857 
7 *19:6 *174:B1 9.3 
*END

*D_NET *20 0.00140542
*CONN
*I *174:B2 I *D sky130_fd_sc_hd__o2bb2a_1
*I *173:B_N I *D sky130_fd_sc_hd__and4bb_1
*I *172:Y O *D sky130_fd_sc_hd__a22oi_1
*CAP
1 *174:B2 0
2 *173:B_N 0.000136001
3 *172:Y 0.000195962
4 *20:12 0.000331964
5 *173:B_N *171:A 5.90666e-05
6 *173:B_N *173:C 5.52238e-05
7 *173:B_N *174:A1_N 9.93406e-05
8 *173:B_N *52:57 0.00018077
9 *173:B_N *55:20 0
10 *20:12 *171:A 0.00012401
11 *20:12 *200:A 5.52238e-05
12 *20:12 *51:22 0
13 *20:12 *52:65 0
14 *20:12 *54:10 0
15 *20:12 *54:21 0
16 *20:12 *55:30 6.19181e-05
17 *19:8 *173:B_N 0.000105941
*RES
1 *172:Y *20:12 21.6929 
2 *20:12 *173:B_N 13.1393 
3 *20:12 *174:B2 9.3 
*END

*D_NET *21 0.00276676
*CONN
*I *198:C1 I *D sky130_fd_sc_hd__a211oi_1
*I *185:A2 I *D sky130_fd_sc_hd__o211a_1
*I *175:A I *D sky130_fd_sc_hd__nor2_1
*I *173:X O *D sky130_fd_sc_hd__and4bb_1
*CAP
1 *198:C1 0.000166662
2 *185:A2 0
3 *175:A 0.00015899
4 *173:X 0.000134019
5 *21:12 0.000247551
6 *21:8 0.000389242
7 *175:A *184:B1 5.7599e-05
8 *175:A *31:12 7.85137e-05
9 *175:A *43:20 2.36643e-05
10 *175:A *52:50 0.000316134
11 *175:A *55:36 0.000357011
12 *198:C1 *182:A 7.60272e-05
13 *198:C1 *184:B1 5.41797e-05
14 *21:8 *185:B1 6.05161e-06
15 *21:8 *185:C1 2.32275e-05
16 *21:8 *199:A 0.000228514
17 *21:8 *32:23 8.45367e-05
18 *21:12 *184:B1 3.17067e-05
19 *185:A1 *21:8 0.000137669
20 *198:B1 *198:C1 9.71197e-05
21 *19:12 *21:8 9.83442e-05
*RES
1 *173:X *21:8 18.0321 
2 *21:8 *21:12 1.26786 
3 *21:12 *175:A 19.4607 
4 *21:12 *185:A2 13.8 
5 *21:8 *198:C1 17.2286 
*END

*D_NET *22 0.00124648
*CONN
*I *175:B I *D sky130_fd_sc_hd__nor2_1
*I *174:X O *D sky130_fd_sc_hd__o2bb2a_1
*CAP
1 *175:B 0.000202507
2 *174:X 0.000202507
3 *175:B *171:A 0
4 *175:B *43:20 0.00022075
5 *175:B *52:65 5.01213e-05
6 *175:B *54:21 0.000168939
7 *175:B *55:36 0.000401657
*RES
1 *174:X *175:B 34.2786 
*END

*D_NET *23 0.00095292
*CONN
*I *181:A I *D sky130_fd_sc_hd__xor2_1
*I *176:Y O *D sky130_fd_sc_hd__nand2_1
*CAP
1 *181:A 0.00027765
2 *176:Y 0.00027765
3 *181:A *180:A1 9.90367e-05
4 *181:A *180:B1_N 9.41642e-05
5 *181:A *181:B 5.62995e-05
6 *181:A *40:10 4.90113e-05
7 *181:A *53:26 9.91086e-05
8 *181:A *57:77 0
*RES
1 *176:Y *181:A 33.1893 
*END

*D_NET *24 0.000592609
*CONN
*I *197:A I *D sky130_fd_sc_hd__xnor2_1
*I *177:Y O *D sky130_fd_sc_hd__nand2_1
*CAP
1 *197:A 0.000223914
2 *177:Y 0.000223914
3 *197:A *197:B 0.000144781
*RES
1 *177:Y *197:A 31.8321 
*END

*D_NET *25 0.00132574
*CONN
*I *180:A2 I *D sky130_fd_sc_hd__a21bo_1
*I *190:B1 I *D sky130_fd_sc_hd__a32o_1
*I *178:X O *D sky130_fd_sc_hd__and3_1
*CAP
1 *180:A2 0.000114184
2 *190:B1 7.62888e-06
3 *178:X 0.000360592
4 *25:10 0.000482405
5 *180:A2 *180:B1_N 4.56594e-05
6 *180:A2 *26:10 1.52978e-05
7 *180:A2 *36:12 0
8 *180:A2 *53:26 1.69115e-05
9 *190:B1 *190:A1 2.39852e-05
10 *190:B1 *190:A3 2.39852e-05
11 *25:10 *26:10 7.6021e-05
12 *25:10 *51:16 9.7659e-05
13 *25:10 *51:22 4.58194e-05
14 *25:10 *52:65 0
15 *25:10 *57:54 1.55885e-05
*RES
1 *178:X *25:10 18.7464 
2 *25:10 *190:B1 14.0411 
3 *25:10 *180:A2 16.05 
*END

*D_NET *26 0.00198966
*CONN
*I *180:B1_N I *D sky130_fd_sc_hd__a21bo_1
*I *190:A3 I *D sky130_fd_sc_hd__a32o_1
*I *179:X O *D sky130_fd_sc_hd__a22o_1
*CAP
1 *180:B1_N 0.000157461
2 *190:A3 6.39224e-05
3 *179:X 0.00021647
4 *26:10 0.000437853
5 *180:B1_N *40:10 4.46231e-06
6 *180:B1_N *53:26 9.91086e-05
7 *190:A3 *176:B 0.000263269
8 *190:A3 *190:A1 4.68742e-05
9 *190:A3 *190:A2 4.22908e-05
10 *190:A3 *190:B2 6.05161e-06
11 *26:10 *179:B1 1.08359e-05
12 *26:10 *51:22 7.90803e-05
13 *26:10 *52:65 0
14 *26:10 *53:26 3.53786e-05
15 *26:10 *56:35 0.000216304
16 *26:10 *57:54 4.27338e-05
17 *26:10 *57:62 1.24368e-05
18 *180:A2 *180:B1_N 4.56594e-05
19 *180:A2 *26:10 1.52978e-05
20 *181:A *180:B1_N 9.41642e-05
21 *190:B1 *190:A3 2.39852e-05
22 *25:10 *26:10 7.6021e-05
*RES
1 *179:X *26:10 18.5143 
2 *26:10 *190:A3 16.4071 
3 *26:10 *180:B1_N 16.4964 
*END

*D_NET *27 0.000144566
*CONN
*I *181:B I *D sky130_fd_sc_hd__xor2_1
*I *180:X O *D sky130_fd_sc_hd__a21bo_1
*CAP
1 *181:B 1.59834e-05
2 *180:X 1.59834e-05
3 *181:B *40:10 5.62995e-05
4 *181:A *181:B 5.62995e-05
*RES
1 *180:X *181:B 19.5464 
*END

*D_NET *28 0.00219799
*CONN
*I *195:A1 I *D sky130_fd_sc_hd__a221o_1
*I *186:B1 I *D sky130_fd_sc_hd__o21a_1
*I *187:A I *D sky130_fd_sc_hd__nor2_1
*I *181:X O *D sky130_fd_sc_hd__xor2_1
*CAP
1 *195:A1 0
2 *186:B1 0.000103297
3 *187:A 0
4 *181:X 0.000292863
5 *28:16 0.000177205
6 *28:8 0.00036677
7 *186:B1 *186:A1 9.01967e-05
8 *186:B1 *195:B2 2.44266e-05
9 *186:B1 *35:6 0.000317082
10 *28:8 *195:A2 3.68638e-05
11 *28:8 *195:B2 8.29398e-06
12 *28:8 *35:29 0.000100262
13 *28:8 *40:10 0.000344878
14 *28:16 *186:A1 2.286e-05
15 *28:16 *195:A2 0.000193588
16 *28:16 *195:B2 5.33208e-05
17 *28:16 *35:6 1.16078e-05
18 *28:16 *35:29 5.44733e-05
*RES
1 *181:X *28:8 16.8357 
2 *28:8 *28:16 3.16071 
3 *28:16 *187:A 9.3 
4 *28:16 *186:B1 13.1571 
5 *28:8 *195:A1 9.3 
*END

*D_NET *29 0.00162306
*CONN
*I *195:A2 I *D sky130_fd_sc_hd__a221o_1
*I *186:A1 I *D sky130_fd_sc_hd__o21a_1
*I *182:X O *D sky130_fd_sc_hd__and4_1
*CAP
1 *195:A2 0.000206271
2 *186:A1 0.000145549
3 *182:X 0.000213363
4 *29:12 0.000565184
5 *29:12 *182:C 2.27416e-05
6 *29:12 *188:A1 0
7 *29:12 *188:A2 0.000126439
8 *29:12 *32:23 0
9 *186:B1 *186:A1 9.01967e-05
10 *28:8 *195:A2 3.68638e-05
11 *28:16 *186:A1 2.286e-05
12 *28:16 *195:A2 0.000193588
*RES
1 *182:X *29:12 22.3 
2 *29:12 *186:A1 12.05 
3 *29:12 *195:A2 12.7688 
*END

*D_NET *30 0.00292873
*CONN
*I *198:A1 I *D sky130_fd_sc_hd__a211oi_1
*I *188:A1 I *D sky130_fd_sc_hd__a21oi_1
*I *185:B1 I *D sky130_fd_sc_hd__o211a_1
*I *183:Y O *D sky130_fd_sc_hd__nand4_1
*CAP
1 *198:A1 0.000201978
2 *188:A1 0.000402642
3 *185:B1 0.000216262
4 *183:Y 0
5 *30:6 0.000618904
6 *30:4 0.000201978
7 *185:B1 *182:B 1.02504e-05
8 *185:B1 *185:C1 8.12786e-05
9 *185:B1 *199:A 0.000231923
10 *185:B1 *43:56 0.000148196
11 *185:B1 *52:33 2.78729e-05
12 *185:B1 *55:42 0.000224592
13 *188:A1 *182:B 9.0573e-05
14 *188:A1 *188:A2 9.02232e-05
15 *188:A1 *188:B1 9.90367e-05
16 *188:A1 *189:B 0.000105547
17 *188:A1 *52:33 3.71496e-05
18 *198:A1 *182:A 0.000126012
19 *198:A1 *199:B 8.25843e-06
20 *21:8 *185:B1 6.05161e-06
21 *29:12 *188:A1 0
*RES
1 *183:Y *30:4 9.3 
2 *30:4 *30:6 4.5 
3 *30:6 *185:B1 20.1036 
4 *30:6 *188:A1 21.3714 
5 *30:4 *198:A1 11.8893 
*END

*D_NET *31 0.00179628
*CONN
*I *198:A2 I *D sky130_fd_sc_hd__a211oi_1
*I *185:C1 I *D sky130_fd_sc_hd__o211a_1
*I *184:X O *D sky130_fd_sc_hd__a22o_1
*CAP
1 *198:A2 0.000311209
2 *185:C1 0.000122621
3 *184:X 7.0805e-05
4 *31:12 0.000504635
5 *185:C1 *199:A 0
6 *198:A2 *182:A 0.000143375
7 *198:A2 *184:B1 0
8 *198:A2 *32:23 0.000148903
9 *175:A *31:12 7.85137e-05
10 *185:A1 *185:C1 1.32056e-05
11 *185:A1 *198:A2 0.000185118
12 *185:B1 *185:C1 8.12786e-05
13 *198:B1 *198:A2 0.000113387
14 *21:8 *185:C1 2.32275e-05
*RES
1 *184:X *31:12 19.7643 
2 *31:12 *185:C1 11.4964 
3 *31:12 *198:A2 25.4071 
*END

*D_NET *32 0.00436266
*CONN
*I *187:B I *D sky130_fd_sc_hd__nor2_1
*I *186:A2 I *D sky130_fd_sc_hd__o21a_1
*I *195:B1 I *D sky130_fd_sc_hd__a221o_1
*I *199:A I *D sky130_fd_sc_hd__nor2_1
*I *185:X O *D sky130_fd_sc_hd__o211a_1
*CAP
1 *187:B 5.73818e-05
2 *186:A2 9.27009e-05
3 *195:B1 0
4 *199:A 0.000506974
5 *185:X 0
6 *32:36 0.000419147
7 *32:23 0.000883653
8 *32:4 0.00112156
9 *186:A2 *35:6 0.00014285
10 *187:B *188:A2 1.02504e-05
11 *187:B *188:B1 0
12 *187:B *194:A 0
13 *187:B *195:C1 2.1527e-05
14 *32:23 *182:A 3.85226e-05
15 *32:23 *184:B1 0
16 *32:36 *188:A2 0
17 *32:36 *195:C1 2.16315e-05
18 *32:36 *35:6 0.000128496
19 *32:36 *35:29 0.00014744
20 *185:B1 *199:A 0.000231923
21 *185:C1 *199:A 0
22 *198:A2 *32:23 0.000148903
23 *198:B1 *32:23 7.6644e-05
24 *21:8 *199:A 0.000228514
25 *21:8 *32:23 8.45367e-05
26 *29:12 *32:23 0
*RES
1 *185:X *32:4 9.3 
2 *32:4 *199:A 16.2107 
3 *32:4 *32:23 15.9643 
4 *32:23 *195:B1 13.8 
5 *32:23 *32:36 8.42857 
6 *32:36 *186:A2 10.6571 
7 *32:36 *187:B 19.3357 
*END

*D_NET *33 0.00183187
*CONN
*I *194:A I *D sky130_fd_sc_hd__xnor2_1
*I *188:B1 I *D sky130_fd_sc_hd__a21oi_1
*I *186:X O *D sky130_fd_sc_hd__o21a_1
*CAP
1 *194:A 0.000498674
2 *188:B1 0.000215334
3 *186:X 0
4 *33:6 0.000714008
5 *188:B1 *188:A2 5.71472e-05
6 *188:B1 *189:A 0
7 *188:B1 *189:B 0.000148903
8 *188:B1 *213:A 0
9 *194:A *194:B 9.87672e-05
10 *194:A *195:C1 0
11 *187:B *188:B1 0
12 *187:B *194:A 0
13 *188:A1 *188:B1 9.90367e-05
*RES
1 *186:X *33:6 13.8 
2 *33:6 *188:B1 18.425 
3 *33:6 *194:A 22.5143 
*END

*D_NET *34 0.000937179
*CONN
*I *188:A2 I *D sky130_fd_sc_hd__a21oi_1
*I *187:Y O *D sky130_fd_sc_hd__nor2_1
*CAP
1 *188:A2 0.000323656
2 *187:Y 0.000323656
3 *188:A2 *189:B 0
4 *188:A2 *195:C1 5.80706e-06
5 *187:B *188:A2 1.02504e-05
6 *188:A1 *188:A2 9.02232e-05
7 *188:B1 *188:A2 5.71472e-05
8 *29:12 *188:A2 0.000126439
9 *32:36 *188:A2 0
*RES
1 *187:Y *188:A2 33.6714 
*END

*D_NET *35 0.0021129
*CONN
*I *191:A I *D sky130_fd_sc_hd__nor2_1
*I *192:A I *D sky130_fd_sc_hd__and2_1
*I *195:B2 I *D sky130_fd_sc_hd__a221o_1
*I *189:X O *D sky130_fd_sc_hd__and2_1
*CAP
1 *191:A 1.86953e-05
2 *192:A 0
3 *195:B2 3.60975e-05
4 *189:X 0.00015637
5 *35:29 0.000250855
6 *35:6 0.000424627
7 *191:A *192:B 7.37071e-05
8 *191:A *193:A 3.1367e-05
9 *35:6 *189:B 4.87854e-05
10 *35:29 *192:B 5.52302e-05
11 *35:29 *193:A 2.89114e-05
12 *186:A2 *35:6 0.00014285
13 *186:B1 *195:B2 2.44266e-05
14 *186:B1 *35:6 0.000317082
15 *28:8 *195:B2 8.29398e-06
16 *28:8 *35:29 0.000100262
17 *28:16 *195:B2 5.33208e-05
18 *28:16 *35:6 1.16078e-05
19 *28:16 *35:29 5.44733e-05
20 *32:36 *35:6 0.000128496
21 *32:36 *35:29 0.00014744
*RES
1 *189:X *35:6 13.9429 
2 *35:6 *195:B2 10.8223 
3 *35:6 *35:29 14.0714 
4 *35:29 *192:A 9.3 
5 *35:29 *191:A 10.2643 
*END

*D_NET *36 0.00182239
*CONN
*I *191:B I *D sky130_fd_sc_hd__nor2_1
*I *192:B I *D sky130_fd_sc_hd__and2_1
*I *190:X O *D sky130_fd_sc_hd__a32o_1
*CAP
1 *191:B 0
2 *192:B 0.000166615
3 *190:X 0.000654835
4 *36:12 0.00082145
5 *192:B *193:A 3.05522e-05
6 *192:B *195:C1 2.00031e-05
7 *36:12 *53:20 0
8 *180:A2 *36:12 0
9 *191:A *192:B 7.37071e-05
10 *35:29 *192:B 5.52302e-05
*RES
1 *190:X *36:12 28.9607 
2 *36:12 *192:B 12.9429 
3 *36:12 *191:B 9.3 
*END

*D_NET *37 0.000610526
*CONN
*I *193:A I *D sky130_fd_sc_hd__or2_1
*I *191:Y O *D sky130_fd_sc_hd__nor2_1
*CAP
1 *193:A 0.00021685
2 *191:Y 0.00021685
3 *193:A *195:C1 2.94004e-05
4 *193:A *38:6 5.65955e-05
5 *191:A *193:A 3.1367e-05
6 *192:B *193:A 3.05522e-05
7 *35:29 *193:A 2.89114e-05
*RES
1 *191:Y *193:A 22.4214 
*END

*D_NET *38 0.000665749
*CONN
*I *193:B I *D sky130_fd_sc_hd__or2_1
*I *195:C1 I *D sky130_fd_sc_hd__a221o_1
*I *192:X O *D sky130_fd_sc_hd__and2_1
*CAP
1 *193:B 0
2 *195:C1 0.000235148
3 *192:X 2.02436e-05
4 *38:6 0.000255392
5 *187:B *195:C1 2.1527e-05
6 *188:A2 *195:C1 5.80706e-06
7 *192:B *195:C1 2.00031e-05
8 *193:A *195:C1 2.94004e-05
9 *193:A *38:6 5.65955e-05
10 *194:A *195:C1 0
11 *32:36 *195:C1 2.16315e-05
*RES
1 *192:X *38:6 9.83571 
2 *38:6 *195:C1 22.2286 
3 *38:6 *193:B 9.3 
*END

*D_NET *39 0.000418716
*CONN
*I *194:B I *D sky130_fd_sc_hd__xnor2_1
*I *193:X O *D sky130_fd_sc_hd__or2_1
*CAP
1 *194:B 0.000159974
2 *193:X 0.000159974
3 *194:A *194:B 9.87672e-05
*RES
1 *193:X *194:B 30.4929 
*END

*D_NET *40 0.00308855
*CONN
*I *197:B I *D sky130_fd_sc_hd__xnor2_1
*I *196:C I *D sky130_fd_sc_hd__and3_1
*I *195:X O *D sky130_fd_sc_hd__a221o_1
*CAP
1 *197:B 0.000158557
2 *196:C 1.22504e-05
3 *195:X 0.00103391
4 *40:10 0.00120472
5 *196:C *196:A 1.95435e-05
6 *40:10 *180:A1 3.67142e-05
7 *40:10 *53:20 2.34204e-05
8 *40:10 *57:77 0
9 *180:B1_N *40:10 4.46231e-06
10 *181:A *40:10 4.90113e-05
11 *181:B *40:10 5.62995e-05
12 *197:A *197:B 0.000144781
13 *28:8 *40:10 0.000344878
*RES
1 *195:X *40:10 28.0857 
2 *40:10 *196:C 13.9964 
3 *40:10 *197:B 16.9964 
*END

*D_NET *41 0.000730812
*CONN
*I *199:B I *D sky130_fd_sc_hd__nor2_1
*I *198:Y O *D sky130_fd_sc_hd__a211oi_1
*CAP
1 *199:B 0.000326545
2 *198:Y 0.000326545
3 *199:B *182:A 2.89114e-05
4 *199:B *183:C 4.0552e-05
5 *199:B *55:42 0
6 *198:A1 *199:B 8.25843e-06
*RES
1 *198:Y *199:B 32.85 
*END

*D_NET *42 0.000785626
*CONN
*I *200:A I *D sky130_fd_sc_hd__clkbuf_1
*I *170:X O *D sky130_fd_sc_hd__and2_1
*CAP
1 *200:A 0.00019009
2 *170:X 0.00019009
3 *200:A *172:A2 8.38159e-05
4 *200:A *172:B1 5.09882e-05
5 *200:A *43:27 0.00010096
6 *200:A *55:36 0.000114457
7 *20:12 *200:A 5.52238e-05
*RES
1 *170:X *200:A 23.2607 
*END

*D_NET *43 0.00557521
*CONN
*I *182:A I *D sky130_fd_sc_hd__and4_1
*I *183:A I *D sky130_fd_sc_hd__nand4_1
*I *184:B2 I *D sky130_fd_sc_hd__a22o_1
*I *172:B2 I *D sky130_fd_sc_hd__a22oi_1
*I *171:A I *D sky130_fd_sc_hd__and4_1
*I *170:B I *D sky130_fd_sc_hd__and2_1
*I *202:X O *D sky130_fd_sc_hd__buf_1
*CAP
1 *182:A 0.000297253
2 *183:A 0
3 *184:B2 0
4 *172:B2 0
5 *171:A 0.000203991
6 *170:B 0
7 *202:X 0.00034193
8 *43:56 0.000444055
9 *43:27 0.000242095
10 *43:20 0.000597302
11 *43:14 0.000579371
12 *43:10 0.000508904
13 *171:A *52:65 2.8266e-06
14 *171:A *55:20 1.77538e-05
15 *182:A *184:B1 0
16 *43:10 *52:33 1.76039e-05
17 *43:14 *55:42 5.52302e-05
18 *43:20 *184:A2 0
19 *43:20 *211:A 9.83388e-05
20 *43:20 *52:33 0.000144497
21 *43:20 *52:50 0.000347966
22 *43:20 *55:36 3.9153e-05
23 *43:20 *55:42 1.21289e-05
24 *43:27 *55:36 0.000186662
25 *43:56 *52:33 0.000188947
26 *43:56 *55:42 0.000104002
27 *173:B_N *171:A 5.90666e-05
28 *175:A *43:20 2.36643e-05
29 *175:B *171:A 0
30 *175:B *43:20 0.00022075
31 *185:B1 *43:56 0.000148196
32 *198:A1 *182:A 0.000126012
33 *198:A2 *182:A 0.000143375
34 *198:B1 *182:A 6.8445e-06
35 *198:C1 *182:A 7.60272e-05
36 *199:B *182:A 2.89114e-05
37 *200:A *43:27 0.00010096
38 *202:A *43:10 1.92905e-05
39 *19:6 *171:A 1.39726e-05
40 *19:8 *171:A 1.56e-05
41 *20:12 *171:A 0.00012401
42 *32:23 *182:A 3.85226e-05
*RES
1 *202:X *43:10 18.3357 
2 *43:10 *43:14 5.03571 
3 *43:14 *43:20 11.8571 
4 *43:20 *170:B 9.3 
5 *43:20 *43:27 1.76786 
6 *43:27 *171:A 21.7286 
7 *43:27 *172:B2 9.3 
8 *43:14 *184:B2 9.3 
9 *43:10 *43:56 9.17857 
10 *43:56 *183:A 9.3 
11 *43:56 *182:A 24.7464 
*END

*D_NET *44 0.000482402
*CONN
*I *210:A I *D sky130_fd_sc_hd__buf_2
*I *201:X O *D sky130_fd_sc_hd__clkbuf_1
*CAP
1 *210:A 0.000241201
2 *201:X 0.000241201
3 *210:A *55:20 0
*RES
1 *201:X *210:A 22.7429 
*END

*D_NET *45 0.00046317
*CONN
*I *211:A I *D sky130_fd_sc_hd__buf_2
*I *175:Y O *D sky130_fd_sc_hd__nor2_1
*CAP
1 *211:A 0.000182416
2 *175:Y 0.000182416
3 *43:20 *211:A 9.83388e-05
*RES
1 *175:Y *211:A 30.4929 
*END

*D_NET *46 0.000849461
*CONN
*I *212:A I *D sky130_fd_sc_hd__buf_2
*I *199:Y O *D sky130_fd_sc_hd__nor2_1
*CAP
1 *212:A 0.00042473
2 *199:Y 0.00042473
*RES
1 *199:Y *212:A 25.725 
*END

*D_NET *47 0.00114247
*CONN
*I *213:A I *D sky130_fd_sc_hd__buf_2
*I *188:Y O *D sky130_fd_sc_hd__a21oi_1
*CAP
1 *213:A 0.000466406
2 *188:Y 0.000466406
3 *213:A *189:A 0.000126446
4 *213:A *189:B 0
5 *213:A *52:10 8.32171e-05
6 *188:B1 *213:A 0
*RES
1 *188:Y *213:A 35.6357 
*END

*D_NET *48 0.000378473
*CONN
*I *214:A I *D sky130_fd_sc_hd__buf_2
*I *194:Y O *D sky130_fd_sc_hd__xnor2_1
*CAP
1 *214:A 0.000189237
2 *194:Y 0.000189237
*RES
1 *194:Y *214:A 30.7964 
*END

*D_NET *49 0.000671719
*CONN
*I *215:A I *D sky130_fd_sc_hd__buf_2
*I *197:Y O *D sky130_fd_sc_hd__xnor2_1
*CAP
1 *215:A 0.000335859
2 *197:Y 0.000335859
3 P[6] *215:A 0
*RES
1 *197:Y *215:A 33.2607 
*END

*D_NET *50 0.00054658
*CONN
*I *216:A I *D sky130_fd_sc_hd__buf_2
*I *196:X O *D sky130_fd_sc_hd__and3_1
*CAP
1 *216:A 0.000187163
2 *196:X 0.000187163
3 *216:A *196:A 5.71472e-05
4 *216:A *53:14 7.32173e-05
5 *216:A *57:77 4.18895e-05
*RES
1 *196:X *216:A 22.4571 
*END

*D_NET *51 0.00288301
*CONN
*I *178:B I *D sky130_fd_sc_hd__and3_1
*I *179:A1 I *D sky130_fd_sc_hd__a22o_1
*I *171:C I *D sky130_fd_sc_hd__and4_1
*I *172:A2 I *D sky130_fd_sc_hd__a22oi_1
*I *203:X O *D sky130_fd_sc_hd__buf_1
*CAP
1 *178:B 0
2 *179:A1 1.82115e-05
3 *171:C 0
4 *172:A2 7.65057e-05
5 *203:X 0.000275562
6 *51:22 0.000374974
7 *51:16 0.000433277
8 *51:12 0.00039216
9 *172:A2 *172:B1 0.000185159
10 *172:A2 *55:30 4.03318e-05
11 *179:A1 *179:B2 3.99614e-06
12 *179:A1 *57:62 1.04232e-05
13 *51:12 *179:B1 0
14 *51:12 *56:14 0.000269422
15 *51:12 *57:77 7.83587e-05
16 *51:16 *178:A 8.07313e-05
17 *51:16 *55:86 2.89114e-05
18 *51:16 *57:62 2.58821e-05
19 *51:22 *172:B1 1.02504e-05
20 *51:22 *52:65 0
21 *51:22 *56:35 0.000199296
22 *51:22 *57:54 5.33005e-05
23 *51:22 *57:62 1.98839e-05
24 *200:A *172:A2 8.38159e-05
25 *20:12 *51:22 0
26 *25:10 *51:16 9.7659e-05
27 *25:10 *51:22 4.58194e-05
28 *26:10 *51:22 7.90803e-05
*RES
1 *203:X *51:12 22.3357 
2 *51:12 *51:16 3.32143 
3 *51:16 *51:22 11.3393 
4 *51:22 *172:A2 16.2286 
5 *51:22 *171:C 13.8 
6 *51:16 *179:A1 9.72857 
7 *51:12 *178:B 9.3 
*END

*D_NET *52 0.00926637
*CONN
*I *189:A I *D sky130_fd_sc_hd__and2_1
*I *182:C I *D sky130_fd_sc_hd__and4_1
*I *174:A2_N I *D sky130_fd_sc_hd__o2bb2a_1
*I *190:A2 I *D sky130_fd_sc_hd__a32o_1
*I *176:B I *D sky130_fd_sc_hd__nand2_1
*I *173:D I *D sky130_fd_sc_hd__and4bb_1
*I *184:A2 I *D sky130_fd_sc_hd__a22o_1
*I *183:C I *D sky130_fd_sc_hd__nand4_1
*I *204:X O *D sky130_fd_sc_hd__clkbuf_2
*CAP
1 *189:A 8.81899e-05
2 *182:C 5.46657e-05
3 *174:A2_N 0
4 *190:A2 3.84711e-05
5 *176:B 0.000282853
6 *173:D 0
7 *184:A2 2.2335e-05
8 *183:C 0.000355919
9 *204:X 0.000306159
10 *52:65 0.000872241
11 *52:57 0.000843989
12 *52:50 0.000608478
13 *52:33 0.000637119
14 *52:25 0.000571781
15 *52:10 0.000731026
16 *52:8 0.000551717
17 *176:B *176:A 5.31567e-06
18 *176:B *190:A1 0
19 *176:B *190:B2 1.56e-05
20 *182:C *182:B 0.000173533
21 *183:C *189:B 0
22 *190:A2 *190:A1 3.57366e-05
23 *52:10 *189:B 0
24 *52:25 *182:B 0.000181796
25 *52:25 *57:6 0.000148105
26 *52:25 *57:30 4.43256e-05
27 *52:33 *184:B1 0.000502191
28 *52:33 *55:36 2.39313e-05
29 *52:33 *55:42 5.33433e-05
30 *52:50 *55:36 2.36643e-05
31 *52:57 *173:C 0.00012166
32 *171:A *52:65 2.8266e-06
33 *173:B_N *52:57 0.00018077
34 *175:A *52:50 0.000316134
35 *175:B *52:65 5.01213e-05
36 *185:A1 *52:50 6.05161e-06
37 *185:B1 *52:33 2.78729e-05
38 *188:A1 *52:33 3.71496e-05
39 *188:B1 *189:A 0
40 *190:A3 *176:B 0.000263269
41 *190:A3 *190:A2 4.22908e-05
42 *199:B *183:C 4.0552e-05
43 *213:A *189:A 0.000126446
44 *213:A *52:10 8.32171e-05
45 *19:12 *52:50 5.82711e-05
46 *19:12 *52:57 1.54969e-05
47 *20:12 *52:65 0
48 *25:10 *52:65 0
49 *26:10 *52:65 0
50 *29:12 *182:C 2.27416e-05
51 *43:10 *52:33 1.76039e-05
52 *43:20 *184:A2 0
53 *43:20 *52:33 0.000144497
54 *43:20 *52:50 0.000347966
55 *43:56 *52:33 0.000188947
56 *51:22 *52:65 0
*RES
1 *204:X *52:8 18.4429 
2 *52:8 *52:10 3.16071 
3 *52:10 *183:C 18.4429 
4 *52:10 *52:25 9.55357 
5 *52:25 *52:33 17.7679 
6 *52:33 *184:A2 9.72857 
7 *52:33 *52:50 16.125 
8 *52:50 *173:D 9.3 
9 *52:50 *52:57 4.23214 
10 *52:57 *52:65 18.7857 
11 *52:65 *176:B 14.0679 
12 *52:65 *190:A2 10.675 
13 *52:57 *174:A2_N 9.3 
14 *52:25 *182:C 11.0679 
15 *52:8 *189:A 15.7464 
*END

*D_NET *53 0.00297504
*CONN
*I *177:B I *D sky130_fd_sc_hd__nand2_1
*I *196:B I *D sky130_fd_sc_hd__and3_1
*I *180:A1 I *D sky130_fd_sc_hd__a21bo_1
*I *190:B2 I *D sky130_fd_sc_hd__a32o_1
*I *179:B1 I *D sky130_fd_sc_hd__a22o_1
*I *205:X O *D sky130_fd_sc_hd__buf_1
*CAP
1 *177:B 4.23996e-05
2 *196:B 0
3 *180:A1 2.22238e-05
4 *190:B2 4.0608e-05
5 *179:B1 0.00011688
6 *205:X 0.000238428
7 *53:26 0.000301433
8 *53:20 0.000383106
9 *53:14 0.000377336
10 *53:10 0.000441226
11 *177:B *57:77 6.98302e-05
12 *179:B1 *56:35 0.00017309
13 *179:B1 *57:77 0
14 *190:B2 *190:A1 5.33005e-05
15 *190:B2 *56:16 5.33005e-05
16 *53:10 *57:77 7.83587e-05
17 *53:14 *196:A 3.14193e-05
18 *53:20 *196:A 3.67142e-05
19 *53:20 *57:77 0
20 *53:26 *57:77 0
21 P[7] *177:B 0
22 *176:B *190:B2 1.56e-05
23 *180:A2 *53:26 1.69115e-05
24 *180:B1_N *53:26 9.91086e-05
25 *181:A *180:A1 9.90367e-05
26 *181:A *53:26 9.91086e-05
27 *190:A3 *190:B2 6.05161e-06
28 *216:A *53:14 7.32173e-05
29 *26:10 *179:B1 1.08359e-05
30 *26:10 *53:26 3.53786e-05
31 *36:12 *53:20 0
32 *40:10 *180:A1 3.67142e-05
33 *40:10 *53:20 2.34204e-05
34 *51:12 *179:B1 0
*RES
1 *205:X *53:10 17.0143 
2 *53:10 *53:14 6.67857 
3 *53:14 *53:20 7.80357 
4 *53:20 *53:26 3.21429 
5 *53:26 *179:B1 16.3536 
6 *53:26 *190:B2 14.7464 
7 *53:20 *180:A1 14.7464 
8 *53:14 *196:B 9.3 
9 *53:10 *177:B 14.8357 
*END

*D_NET *54 0.00170124
*CONN
*I *174:A1_N I *D sky130_fd_sc_hd__o2bb2a_1
*I *173:C I *D sky130_fd_sc_hd__and4bb_1
*I *170:A I *D sky130_fd_sc_hd__and2_1
*I *206:X O *D sky130_fd_sc_hd__clkbuf_1
*CAP
1 *174:A1_N 2.44456e-05
2 *173:C 4.17052e-05
3 *170:A 0
4 *206:X 0.000229218
5 *54:21 0.00019628
6 *54:10 0.000359347
7 *173:B_N *173:C 5.52238e-05
8 *173:B_N *174:A1_N 9.93406e-05
9 *175:B *54:21 0.000168939
10 *206:A *54:10 1.92905e-05
11 *19:8 *173:C 4.18895e-05
12 *19:8 *174:A1_N 0.000111777
13 *19:12 *173:C 0.000232124
14 *20:12 *54:10 0
15 *20:12 *54:21 0
16 *52:57 *173:C 0.00012166
*RES
1 *206:X *54:10 16.8 
2 *54:10 *170:A 13.8 
3 *54:10 *54:21 7.05357 
4 *54:21 *173:C 11.8893 
5 *54:21 *174:A1_N 10.3938 
*END

*D_NET *55 0.00768909
*CONN
*I *178:A I *D sky130_fd_sc_hd__and3_1
*I *179:B2 I *D sky130_fd_sc_hd__a22o_1
*I *201:A I *D sky130_fd_sc_hd__clkbuf_1
*I *171:B I *D sky130_fd_sc_hd__and4_1
*I *172:A1 I *D sky130_fd_sc_hd__a22oi_1
*I *184:A1 I *D sky130_fd_sc_hd__a22o_1
*I *182:B I *D sky130_fd_sc_hd__and4_1
*I *183:B I *D sky130_fd_sc_hd__nand4_1
*I *207:X O *D sky130_fd_sc_hd__clkbuf_2
*CAP
1 *178:A 6.67875e-05
2 *179:B2 1.88369e-05
3 *201:A 0
4 *171:B 0
5 *172:A1 0
6 *184:A1 0
7 *182:B 0.000129163
8 *183:B 0
9 *207:X 0.000377394
10 *55:86 0.000302774
11 *55:42 0.000513066
12 *55:36 0.000978484
13 *55:30 0.000739636
14 *55:20 0.000290527
15 *55:12 0.000145472
16 *55:10 0.000594543
17 *178:A *57:62 0.000123819
18 *178:A *57:77 6.28435e-05
19 *179:B2 *57:62 3.99614e-06
20 *182:B *183:D 3.25078e-05
21 *182:B *189:B 1.76135e-05
22 *182:B *57:30 0.00022266
23 *182:B *57:43 9.87672e-05
24 *182:B *57:54 9.99853e-05
25 *55:10 *172:B1 3.15832e-05