*SPEF "ieee 1481-1999"
*DESIGN "SarsanStepsNada_e8"
*DATE "10:05:27 Friday September 12, 2025"
*VENDOR "The OpenROAD Project"
*PROGRAM "OpenROAD"
*VERSION "edf00dff99f6c40d67a30c0e22a8191c5d2ed9d6"
*DESIGN_FLOW "NAME_SCOPE LOCAL" "PIN_CAP NONE"
*DIVIDER /
*DELIMITER :
*BUS_DELIMITER []
*T_UNIT 1 NS
*C_UNIT 1 PF
*R_UNIT 1 OHM
*L_UNIT 1 HENRY

*NAME_MAP
*1 A[0]
*2 A[1]
*3 B[0]
*4 B[1]
*5 P[0]
*6 P[1]
*7 P[2]
*8 P[3]
*11 _0_
*12 net1
*13 net2
*14 net3
*15 net4
*16 net5
*17 net6
*18 net7
*19 net8
*20 FILLER_0_15
*21 FILLER_0_27
*22 FILLER_0_29
*23 FILLER_0_3
*24 FILLER_0_41
*25 FILLER_0_53
*26 FILLER_0_57
*27 FILLER_0_69
*28 FILLER_1_15
*29 FILLER_1_27
*30 FILLER_1_3
*31 FILLER_1_39
*32 FILLER_1_51
*33 FILLER_1_55
*34 FILLER_1_57
*35 FILLER_1_69
*36 FILLER_2_18
*37 FILLER_2_26
*38 FILLER_2_29
*39 FILLER_2_41
*40 FILLER_2_53
*41 FILLER_2_6
*42 FILLER_2_65
*43 FILLER_2_77
*44 FILLER_3_15
*45 FILLER_3_27
*46 FILLER_3_3
*47 FILLER_3_39
*48 FILLER_3_51
*49 FILLER_3_55
*50 FILLER_3_57
*51 FILLER_3_69
*52 FILLER_4_18
*53 FILLER_4_24
*54 FILLER_4_29
*55 FILLER_4_41
*56 FILLER_4_53
*57 FILLER_4_6
*58 FILLER_4_65
*59 FILLER_4_77
*60 FILLER_5_19
*61 FILLER_5_30
*62 FILLER_5_42
*63 FILLER_5_54
*64 FILLER_5_57
*65 FILLER_5_69
*66 FILLER_5_7
*67 FILLER_6_18
*68 FILLER_6_26
*69 FILLER_6_36
*70 FILLER_6_48
*71 FILLER_6_6
*72 FILLER_6_60
*73 FILLER_6_72
*74 FILLER_6_76
*75 FILLER_7_26
*76 FILLER_7_38
*77 FILLER_7_50
*78 FILLER_7_57
*79 FILLER_7_69
*80 FILLER_7_7
*81 FILLER_8_15
*82 FILLER_8_27
*83 FILLER_8_29
*84 FILLER_8_3
*85 FILLER_8_41
*86 FILLER_8_53
*87 FILLER_8_65
*88 FILLER_8_77
*89 FILLER_9_18
*90 FILLER_9_26
*91 FILLER_9_29
*92 FILLER_9_41
*93 FILLER_9_53
*94 FILLER_9_57
*95 FILLER_9_6
*96 FILLER_9_69
*97 PHY_EDGE_ROW_0_Left_10
*98 PHY_EDGE_ROW_0_Right_0
*99 PHY_EDGE_ROW_1_Left_11
*100 PHY_EDGE_ROW_1_Right_1
*101 PHY_EDGE_ROW_2_Left_12
*102 PHY_EDGE_ROW_2_Right_2
*103 PHY_EDGE_ROW_3_Left_13
*104 PHY_EDGE_ROW_3_Right_3
*105 PHY_EDGE_ROW_4_Left_14
*106 PHY_EDGE_ROW_4_Right_4
*107 PHY_EDGE_ROW_5_Left_15
*108 PHY_EDGE_ROW_5_Right_5
*109 PHY_EDGE_ROW_6_Left_16
*110 PHY_EDGE_ROW_6_Right_6
*111 PHY_EDGE_ROW_7_Left_17
*112 PHY_EDGE_ROW_7_Right_7
*113 PHY_EDGE_ROW_8_Left_18
*114 PHY_EDGE_ROW_8_Right_8
*115 PHY_EDGE_ROW_9_Left_19
*116 PHY_EDGE_ROW_9_Right_9
*117 TAP_TAPCELL_ROW_0_20
*118 TAP_TAPCELL_ROW_0_21
*119 TAP_TAPCELL_ROW_1_22
*120 TAP_TAPCELL_ROW_2_23
*121 TAP_TAPCELL_ROW_3_24
*122 TAP_TAPCELL_ROW_4_25
*123 TAP_TAPCELL_ROW_5_26
*124 TAP_TAPCELL_ROW_6_27
*125 TAP_TAPCELL_ROW_7_28
*126 TAP_TAPCELL_ROW_8_29
*127 TAP_TAPCELL_ROW_9_30
*128 TAP_TAPCELL_ROW_9_31
*129 _1_
*130 _2_
*131 _3_
*132 _4_
*133 _5_
*134 input1
*135 input2
*136 input3
*137 input4
*138 output5
*139 output6
*140 output7
*141 output8

*PORTS
A[0] I
A[1] I
B[0] I
B[1] I
P[0] O
P[1] O
P[2] O
P[3] O

*D_NET *1 0.000618322
*CONN
*P A[0] I
*I *134:A I *D sky130_fd_sc_hd__buf_1
*CAP
1 A[0] 0.000295572
2 *134:A 0.000295572
3 *134:A *136:A 2.71788e-05
*RES
1 A[0] *134:A 20.7838 
*END

*D_NET *2 0.000680168
*CONN
*P A[1] I
*I *135:A I *D sky130_fd_sc_hd__buf_1
*CAP
1 A[1] 0.000328786
2 *135:A 0.000328786
3 *135:A P[0] 2.25951e-05
4 *135:A *137:A 0
*RES
1 A[1] *135:A 20.2479 
*END

*D_NET *3 0.000699525
*CONN
*P B[0] I
*I *136:A I *D sky130_fd_sc_hd__buf_1
*CAP
1 B[0] 0.000321177
2 *136:A 0.000321177
3 *136:A P[1] 2.99915e-05
4 *134:A *136:A 2.71788e-05
*RES
1 B[0] *136:A 21.6946 
*END

*D_NET *4 0.000524419
*CONN
*P B[1] I
*I *137:A I *D sky130_fd_sc_hd__buf_1
*CAP
1 B[1] 0.000219383
2 *137:A 0.000219383
3 *137:A P[0] 3.19385e-05
4 *137:A P[1] 2.87684e-05
5 *137:A *139:A 2.49459e-05
6 *135:A *137:A 0
*RES
1 B[1] *137:A 18.73 
*END

*D_NET *5 0.000724586
*CONN
*P P[0] O
*I *138:X O *D sky130_fd_sc_hd__buf_2
*CAP
1 P[0] 0.000335026
2 *138:X 0.000335026
3 *135:A P[0] 2.25951e-05
4 *137:A P[0] 3.19385e-05
*RES
1 *138:X P[0] 20.891 
*END

*D_NET *6 0.000725588
*CONN
*P P[1] O
*I *139:X O *D sky130_fd_sc_hd__buf_2
*CAP
1 P[1] 0.000333414
2 *139:X 0.000333414
3 *136:A P[1] 2.99915e-05
4 *137:A P[1] 2.87684e-05
*RES
1 *139:X P[1] 20.891 
*END

*D_NET *7 0.000567153
*CONN
*P P[2] O
*I *140:X O *D sky130_fd_sc_hd__buf_2
*CAP
1 P[2] 0.000237139
2 *140:X 0.000237139
3 P[2] P[3] 9.28756e-05
*RES
1 *140:X P[2] 18.8021 
*END

*D_NET *8 0.000492366
*CONN
*P P[3] O
*I *141:X O *D sky130_fd_sc_hd__buf_2
*CAP
1 P[3] 0.000199745
2 *141:X 0.000199745
3 P[2] P[3] 9.28756e-05
*RES
1 *141:X P[3] 18.1949 
*END

*D_NET *11 0.000670724
*CONN
*I *132:C I *D sky130_fd_sc_hd__and3_1
*I *129:Y O *D sky130_fd_sc_hd__nand2_1
*CAP
1 *132:C 0.000296759
2 *129:Y 0.000296759
3 *132:C *132:B 6.33946e-06
4 *132:C *12:19 0
5 *132:C *14:10 1.32552e-05
6 *132:C *14:21 5.76121e-05
*RES
1 *129:Y *132:C 32.225 
*END

*D_NET *12 0.00324989
*CONN
*I *130:D I *D sky130_fd_sc_hd__and4_1
*I *133:D I *D sky130_fd_sc_hd__and4_1
*I *129:B I *D sky130_fd_sc_hd__nand2_1
*I *134:X O *D sky130_fd_sc_hd__buf_1
*CAP
1 *130:D 0.000140308
2 *133:D 0.000300289
3 *129:B 0
4 *134:X 0.000819948
5 *12:19 0.000683442
6 *12:10 0.00106279
7 *130:D *130:B 0
8 *130:D *132:A 3.79104e-05
9 *130:D *15:23 5.26184e-05
10 *133:D *133:A 0.000106828
11 *12:10 *14:21 0
12 *12:19 *130:B 0
13 *12:19 *132:A 4.57538e-05
14 *12:19 *14:21 0
15 *132:C *12:19 0
*RES
1 *134:X *12:10 24.5679 
2 *12:10 *129:B 13.8 
3 *12:10 *12:19 4.67857 
4 *12:19 *133:D 18.8536 
5 *12:19 *130:D 16.9607 
*END

*D_NET *13 0.00415776
*CONN
*I *133:C I *D sky130_fd_sc_hd__and4_1
*I *132:B I *D sky130_fd_sc_hd__and3_1
*I *130:C I *D sky130_fd_sc_hd__and4_1
*I *131:A2 I *D sky130_fd_sc_hd__o21ba_1
*I *135:X O *D sky130_fd_sc_hd__buf_1
*CAP
1 *133:C 0
2 *132:B 0.000316238
3 *130:C 0
4 *131:A2 4.4515e-05
5 *135:X 0.000605413
6 *13:34 0.000753833
7 *13:23 0.000613723
8 *13:10 0.000826056
9 *131:A2 *15:23 5.80706e-06
10 *132:B *130:B 5.7616e-05
11 *132:B *140:A 1.36589e-05
12 *132:B *14:21 0.000200413
13 *13:23 *130:A 0.000188586
14 *13:23 *16:8 3.30237e-05
15 *13:34 *130:A 0.000131439
16 *13:34 *130:B 0.000361103
17 *132:C *132:B 6.33946e-06
*RES
1 *135:X *13:10 21.9071 
2 *13:10 *131:A2 14.5321 
3 *13:10 *13:23 7.08929 
4 *13:23 *130:C 9.3 
5 *13:23 *13:34 12.1964 
6 *13:34 *132:B 19.1393 
7 *13:34 *133:C 13.8 
*END

*D_NET *14 0.00316905
*CONN
*I *130:B I *D sky130_fd_sc_hd__and4_1
*I *133:B I *D sky130_fd_sc_hd__and4_1
*I *129:A I *D sky130_fd_sc_hd__nand2_1
*I *136:X O *D sky130_fd_sc_hd__buf_1
*CAP
1 *130:B 0.000270441
2 *133:B 0
3 *129:A 0
4 *136:X 0.000531385
5 *14:21 0.000657658
6 *14:10 0.000918603
7 *130:B *130:A 0.00010096
8 *130:D *130:B 0
9 *132:B *130:B 5.7616e-05
10 *132:B *14:21 0.000200413
11 *132:C *14:10 1.32552e-05
12 *132:C *14:21 5.76121e-05
13 *12:10 *14:21 0
14 *12:19 *130:B 0
15 *12:19 *14:21 0
16 *13:34 *130:B 0.000361103
*RES
1 *136:X *14:10 17.675 
2 *14:10 *129:A 9.3 
3 *14:10 *14:21 12.2857 
4 *14:21 *133:B 13.8 
5 *14:21 *130:B 20.675 
*END

*D_NET *15 0.00346217
*CONN
*I *133:A I *D sky130_fd_sc_hd__and4_1
*I *130:A I *D sky130_fd_sc_hd__and4_1
*I *131:A1 I *D sky130_fd_sc_hd__o21ba_1
*I *132:A I *D sky130_fd_sc_hd__and3_1
*I *137:X O *D sky130_fd_sc_hd__buf_1
*CAP
1 *133:A 0.000378821
2 *130:A 9.89254e-05
3 *131:A1 0
4 *132:A 0.00032921
5 *137:X 0.000478619
6 *15:23 0.000195027
7 *15:8 0.000425312
8 *15:6 0.000857439
9 *130:A *16:8 2.89114e-05
10 *130:B *130:A 0.00010096
11 *130:D *132:A 3.79104e-05
12 *130:D *15:23 5.26184e-05
13 *131:A2 *15:23 5.80706e-06
14 *133:D *133:A 0.000106828
15 *12:19 *132:A 4.57538e-05
16 *13:23 *130:A 0.000188586
17 *13:34 *130:A 0.000131439
*RES
1 *137:X *15:6 14.7643 
2 *15:6 *15:8 4.5 
3 *15:8 *132:A 19.6571 
4 *15:8 *15:23 6.44643 
5 *15:23 *131:A1 9.3 
6 *15:23 *130:A 12.7286 
7 *15:6 *133:A 14.3714 
*END

*D_NET *16 0.000749472
*CONN
*I *131:B1_N I *D sky130_fd_sc_hd__o21ba_1
*I *138:A I *D sky130_fd_sc_hd__buf_2
*I *130:X O *D sky130_fd_sc_hd__and4_1
*CAP
1 *131:B1_N 0
2 *138:A 0.000140713
3 *130:X 0.000158539
4 *16:8 0.000299253
5 *138:A *139:A 8.90314e-05
6 *130:A *16:8 2.89114e-05
7 *13:23 *16:8 3.30237e-05
*RES
1 *130:X *16:8 12.3179 
2 *16:8 *138:A 12.3 
3 *16:8 *131:B1_N 9.3 
*END

*D_NET *17 0.000885213
*CONN
*I *139:A I *D sky130_fd_sc_hd__buf_2
*I *131:X O *D sky130_fd_sc_hd__o21ba_1
*CAP
1 *139:A 0.000385618
2 *131:X 0.000385618
3 *137:A *139:A 2.49459e-05
4 *138:A *139:A 8.90314e-05
*RES
1 *131:X *139:A 33.85 
*END

*D_NET *18 0.00323946
*CONN
*I *140:A I *D sky130_fd_sc_hd__buf_2
*I *132:X O *D sky130_fd_sc_hd__and3_1
*CAP
1 *140:A 0.0016129
2 *132:X 0.0016129
3 *132:B *140:A 1.36589e-05
*RES
1 *132:X *140:A 39.2964 
*END

*D_NET *19 0.00210714
*CONN
*I *141:A I *D sky130_fd_sc_hd__buf_2
*I *133:X O *D sky130_fd_sc_hd__and4_1
*CAP
1 *141:A 0.00105357
2 *133:X 0.00105357
*RES
1 *133:X *141:A 35.975 
*END
