*SPEF "ieee 1481-1999"
*DESIGN "mult4_SARSA_RUIDO_e9_SARSA_RUIDO_e9_SarsaNStepsRuido_e9_SarsaNStepsRuido_e9"
*DATE "11:51:39 Wednesday September 17, 2025"
*VENDOR "The OpenROAD Project"
*PROGRAM "OpenROAD"
*VERSION "edf00dff99f6c40d67a30c0e22a8191c5d2ed9d6"
*DESIGN_FLOW "NAME_SCOPE LOCAL" "PIN_CAP NONE"
*DIVIDER /
*DELIMITER :
*BUS_DELIMITER []
*T_UNIT 1 NS
*C_UNIT 1 PF
*R_UNIT 1 OHM
*L_UNIT 1 HENRY

*NAME_MAP
*1 A[0]
*2 A[1]
*3 A[2]
*4 A[3]
*5 B[0]
*6 B[1]
*7 B[2]
*8 B[3]
*9 P[0]
*10 P[1]
*11 P[2]
*12 P[3]
*13 P[4]
*14 P[5]
*15 P[6]
*16 P[7]
*19 _000_
*20 _001_
*21 _002_
*22 _003_
*23 _004_
*24 _005_
*25 _006_
*26 _007_
*27 _008_
*28 _009_
*29 _010_
*30 _011_
*31 _012_
*32 _013_
*33 _014_
*34 _015_
*35 _016_
*36 _017_
*37 _018_
*38 _019_
*39 _020_
*40 _021_
*41 _022_
*42 _023_
*43 _024_
*44 _025_
*45 _026_
*46 _027_
*47 _028_
*48 _029_
*49 _030_
*50 _031_
*51 _032_
*52 _033_
*53 _034_
*54 _035_
*55 _036_
*56 _037_
*57 _038_
*58 _039_
*59 _040_
*60 _041_
*61 _042_
*62 _043_
*63 _044_
*64 _045_
*65 _046_
*66 _047_
*67 _048_
*68 _049_
*69 _050_
*70 net1
*71 net10
*72 net11
*73 net12
*74 net13
*75 net14
*76 net15
*77 net16
*78 net2
*79 net3
*80 net4
*81 net5
*82 net6
*83 net7
*84 net8
*85 net9
*86 FILLER_0_19
*87 FILLER_0_3
*88 FILLER_0_43
*89 FILLER_0_49
*90 FILLER_0_55
*91 FILLER_0_57
*92 FILLER_0_69
*93 FILLER_0_7
*94 FILLER_1_3
*95 FILLER_1_33
*96 FILLER_1_41
*97 FILLER_1_54
*98 FILLER_1_57
*99 FILLER_1_69
*100 FILLER_1_73
*101 FILLER_1_77
*102 FILLER_2_16
*103 FILLER_2_21
*104 FILLER_2_27
*105 FILLER_2_29
*106 FILLER_2_41
*107 FILLER_2_51
*108 FILLER_2_60
*109 FILLER_2_7
*110 FILLER_2_76
*111 FILLER_3_16
*112 FILLER_3_3
*113 FILLER_3_46
*114 FILLER_3_54
*115 FILLER_3_57
*116 FILLER_3_65
*117 FILLER_3_71
*118 FILLER_3_79
*119 FILLER_3_8
*120 FILLER_4_14
*121 FILLER_4_24
*122 FILLER_4_29
*123 FILLER_4_37
*124 FILLER_4_42
*125 FILLER_4_54
*126 FILLER_4_6
*127 FILLER_4_64
*128 FILLER_4_76
*129 FILLER_5_29
*130 FILLER_5_53
*131 FILLER_5_6
*132 FILLER_5_63
*133 FILLER_6_12
*134 FILLER_6_20
*135 FILLER_6_26
*136 FILLER_6_29
*137 FILLER_6_3
*138 FILLER_6_35
*139 FILLER_6_39
*140 FILLER_6_51
*141 FILLER_6_63
*142 FILLER_6_75
*143 FILLER_7_12
*144 FILLER_7_18
*145 FILLER_7_27
*146 FILLER_7_44
*147 FILLER_7_55
*148 FILLER_7_57
*149 FILLER_7_6
*150 FILLER_7_66
*151 FILLER_7_74
*152 FILLER_8_20
*153 FILLER_8_29
*154 FILLER_8_3
*155 FILLER_8_40
*156 FILLER_8_52
*157 FILLER_8_71
*158 FILLER_8_79
*159 FILLER_9_15
*160 FILLER_9_27
*161 FILLER_9_29
*162 FILLER_9_3
*163 FILLER_9_55
*164 FILLER_9_67
*165 FILLER_9_75
*166 PHY_EDGE_ROW_0_Left_10
*167 PHY_EDGE_ROW_0_Right_0
*168 PHY_EDGE_ROW_1_Left_11
*169 PHY_EDGE_ROW_1_Right_1
*170 PHY_EDGE_ROW_2_Left_12
*171 PHY_EDGE_ROW_2_Right_2
*172 PHY_EDGE_ROW_3_Left_13
*173 PHY_EDGE_ROW_3_Right_3
*174 PHY_EDGE_ROW_4_Left_14
*175 PHY_EDGE_ROW_4_Right_4
*176 PHY_EDGE_ROW_5_Left_15
*177 PHY_EDGE_ROW_5_Right_5
*178 PHY_EDGE_ROW_6_Left_16
*179 PHY_EDGE_ROW_6_Right_6
*180 PHY_EDGE_ROW_7_Left_17
*181 PHY_EDGE_ROW_7_Right_7
*182 PHY_EDGE_ROW_8_Left_18
*183 PHY_EDGE_ROW_8_Right_8
*184 PHY_EDGE_ROW_9_Left_19
*185 PHY_EDGE_ROW_9_Right_9
*186 TAP_TAPCELL_ROW_0_20
*187 TAP_TAPCELL_ROW_0_21
*188 TAP_TAPCELL_ROW_1_22
*189 TAP_TAPCELL_ROW_2_23
*190 TAP_TAPCELL_ROW_3_24
*191 TAP_TAPCELL_ROW_4_25
*192 TAP_TAPCELL_ROW_5_26
*193 TAP_TAPCELL_ROW_6_27
*194 TAP_TAPCELL_ROW_7_28
*195 TAP_TAPCELL_ROW_8_29
*196 TAP_TAPCELL_ROW_9_30
*197 TAP_TAPCELL_ROW_9_31
*198 _051_
*199 _052_
*200 _053_
*201 _054_
*202 _055_
*203 _056_
*204 _057_
*205 _058_
*206 _059_
*207 _060_
*208 _061_
*209 _062_
*210 _063_
*211 _064_
*212 _065_
*213 _066_
*214 _067_
*215 _068_
*216 _069_
*217 _070_
*218 _071_
*219 _072_
*220 _073_
*221 _074_
*222 _075_
*223 _076_
*224 _077_
*225 _078_
*226 _079_
*227 _080_
*228 _081_
*229 _082_
*230 _083_
*231 _084_
*232 _085_
*233 _086_
*234 _087_
*235 _088_
*236 _089_
*237 _090_
*238 _091_
*239 _092_
*240 _093_
*241 _094_
*242 _095_
*243 _096_
*244 _097_
*245 _098_
*246 _099_
*247 _100_
*248 _101_
*249 _102_
*250 _103_
*251 _104_
*252 _105_
*253 _106_
*254 _107_
*255 _108_
*256 _109_
*257 input1
*258 input2
*259 input3
*260 input4
*261 input5
*262 input6
*263 input7
*264 input8
*265 output10
*266 output11
*267 output12
*268 output13
*269 output14
*270 output15
*271 output16
*272 output9

*PORTS
A[0] I
A[1] I
A[2] I
A[3] I
B[0] I
B[1] I
B[2] I
B[3] I
P[0] O
P[1] O
P[2] O
P[3] O
P[4] O
P[5] O
P[6] O
P[7] O

*D_NET *1 0.00117507
*CONN
*P A[0] I
*I *257:A I *D sky130_fd_sc_hd__clkbuf_2
*CAP
1 A[0] 0.000504938
2 *257:A 0.000504938
3 *257:A P[0] 0
4 *257:A *204:A 2.04196e-05
5 *257:A *204:B 0.000144773
6 *257:A *258:A 0
7 *257:A *20:16 0
*RES
1 A[0] *257:A 23.4964 
*END

*D_NET *2 0.0010011
*CONN
*P A[1] I
*I *258:A I *D sky130_fd_sc_hd__clkbuf_2
*CAP
1 A[1] 0.000440245
2 *258:A 0.000440245
3 *258:A P[2] 0
4 *258:A *212:A 1.24368e-05
5 *258:A *212:B 7.49387e-06
6 *258:A *266:A 0.000100684
7 *257:A *258:A 0
*RES
1 A[1] *258:A 22.3536 
*END

*D_NET *3 0.000670164
*CONN
*P A[2] I
*I *259:A I *D sky130_fd_sc_hd__buf_1
*CAP
1 A[2] 0.000305702
2 *259:A 0.000305702
3 *259:A *261:A 2.99915e-05
4 *259:A *263:A 2.87684e-05
5 *259:A *80:14 0
*RES
1 A[2] *259:A 21.391 
*END

*D_NET *4 0.000574322
*CONN
*P A[3] I
*I *260:A I *D sky130_fd_sc_hd__buf_1
*CAP
1 A[3] 0.000275863
2 *260:A 0.000275863
3 *260:A *263:A 2.25951e-05
*RES
1 A[3] *260:A 20.4803 
*END

*D_NET *5 0.000699525
*CONN
*P B[0] I
*I *261:A I *D sky130_fd_sc_hd__buf_1
*CAP
1 B[0] 0.000321177
2 *261:A 0.000321177
3 *261:A *224:A1 0
4 *261:A *224:A2 0
5 *261:A *262:A 2.71788e-05
6 *259:A *261:A 2.99915e-05
*RES
1 B[0] *261:A 21.6946 
*END

*D_NET *6 0.000667202
*CONN
*P B[1] I
*I *262:A I *D sky130_fd_sc_hd__clkbuf_2
*CAP
1 B[1] 0.000320012
2 *262:A 0.000320012
3 *261:A *262:A 2.71788e-05
*RES
1 B[1] *262:A 21.1946 
*END

*D_NET *7 0.000931073
*CONN
*P B[2] I
*I *263:A I *D sky130_fd_sc_hd__clkbuf_2
*CAP
1 B[2] 0.00041358
2 *263:A 0.00041358
3 *263:A *235:C 9.25014e-06
4 *263:A *79:32 4.33002e-05
5 *259:A *263:A 2.87684e-05
6 *260:A *263:A 2.25951e-05
*RES
1 B[2] *263:A 18.8588 
*END

*D_NET *8 0.00114683
*CONN
*P B[3] I
*I *264:A I *D sky130_fd_sc_hd__dlymetal6s2s_1
*CAP
1 B[3] 0.000530155
2 *264:A 0.000530155
3 *264:A *251:B 5.52238e-05
4 *264:A *253:A1_N 2.38651e-06
5 *264:A *84:8 2.89114e-05
*RES
1 B[3] *264:A 24.3 
*END

*D_NET *9 0.000940367
*CONN
*P P[0] O
*I *272:X O *D sky130_fd_sc_hd__buf_2
*CAP
1 P[0] 0.000420665
2 *272:X 0.000420665
3 P[0] P[1] 0
4 P[0] *204:B 8.57023e-05
5 P[0] *205:A2 1.33343e-05
6 *257:A P[0] 0
*RES
1 *272:X P[0] 21.6393 
*END

*D_NET *10 0.00120988
*CONN
*P P[1] O
*I *265:X O *D sky130_fd_sc_hd__buf_2
*CAP
1 P[1] 0.000547456
2 *265:X 0.000547456
3 P[1] *205:A2 5.52238e-05
4 P[1] *205:B1 5.23057e-05
5 P[1] *265:A 7.43578e-06
6 P[0] P[1] 0
*RES
1 *265:X P[1] 23.2821 
*END

*D_NET *11 0.000934728
*CONN
*P P[2] O
*I *266:X O *D sky130_fd_sc_hd__buf_2
*CAP
1 P[2] 0.000464338
2 *266:X 0.000464338
3 P[2] *266:A 6.05161e-06
4 *258:A P[2] 0
*RES
1 *266:X P[2] 22.3 
*END

*D_NET *12 0.000509696
*CONN
*P P[3] O
*I *267:X O *D sky130_fd_sc_hd__buf_2
*CAP
1 P[3] 0.000241367
2 *267:X 0.000241367
3 P[3] P[4] 0
4 P[3] *267:A 2.69614e-05
*RES
1 *267:X P[3] 18.4985 
*END

*D_NET *13 0.000555272
*CONN
*P P[4] O
*I *268:X O *D sky130_fd_sc_hd__buf_2
*CAP
1 P[4] 0.000272838
2 *268:X 0.000272838
3 P[4] P[5] 0
4 P[4] *268:A 9.59532e-06
5 P[3] P[4] 0
*RES
1 *268:X P[4] 18.267 
*END

*D_NET *14 0.000482441
*CONN
*P P[5] O
*I *269:X O *D sky130_fd_sc_hd__buf_2
*CAP
1 P[5] 0.000194783
2 *269:X 0.000194783
3 P[5] P[6] 9.28756e-05
4 P[4] P[5] 0
*RES
1 *269:X P[5] 18.1949 
*END

*D_NET *15 0.000642146
*CONN
*P P[6] O
*I *270:X O *D sky130_fd_sc_hd__buf_2
*CAP
1 P[6] 0.000254992
2 *270:X 0.000254992
3 P[6] *270:A 3.92854e-05
4 P[5] P[6] 9.28756e-05
*RES
1 *270:X P[6] 19.4092 
*END

*D_NET *16 0.00141911
*CONN
*P P[7] O
*I *271:X O *D sky130_fd_sc_hd__buf_2
*CAP
1 P[7] 0.000605478
2 *271:X 0.000605478
3 P[7] *254:A1 0.000200715
4 P[7] *254:B1 7.43578e-06
*RES
1 *271:X P[7] 25.0321 
*END

*D_NET *19 0.00344375
*CONN
*I *225:A1 I *D sky130_fd_sc_hd__a211o_1
*I *209:A1 I *D sky130_fd_sc_hd__o211a_1
*I *204:A I *D sky130_fd_sc_hd__nor2_1
*I *198:Y O *D sky130_fd_sc_hd__inv_2
*CAP
1 *225:A1 0.000328655
2 *209:A1 0
3 *204:A 0.00037743
4 *198:Y 0.000174982
5 *19:10 0.000462718
6 *19:8 0.000588924
7 *204:A *204:B 1.74352e-05
8 *204:A *212:A 0
9 *204:A *212:B 0
10 *204:A *272:A 0.000241834
11 *204:A *20:10 1.02504e-05
12 *204:A *20:16 0.000174805
13 *204:A *70:10 5.16852e-05
14 *225:A1 *221:A_N 0.000225616
15 *225:A1 *221:B 0
16 *225:A1 *225:A2 5.33005e-05
17 *225:A1 *225:C1 1.3701e-05
18 *225:A1 *43:10 0.000166416
19 *225:A1 *78:33 1.37292e-05
20 *225:A1 *78:57 6.04162e-05
21 *19:8 *20:10 9.71197e-05
22 *19:8 *70:35 0.000139913
23 *19:8 *70:42 8.57023e-05
24 *19:10 *20:10 0.000113038
25 *19:10 *70:10 1.87955e-05
26 *19:10 *78:31 0
27 *19:10 *78:33 6.8646e-06
28 *257:A *204:A 2.04196e-05
*RES
1 *198:Y *19:8 17.2107 
2 *19:8 *19:10 1.94643 
3 *19:10 *204:A 21.4607 
4 *19:10 *209:A1 13.8 
5 *19:8 *225:A1 21.3179 
*END

*D_NET *20 0.00221351
*CONN
*I *209:A2 I *D sky130_fd_sc_hd__o211a_1
*I *204:B I *D sky130_fd_sc_hd__nor2_1
*I *205:A2 I *D sky130_fd_sc_hd__a31o_1
*I *199:Y O *D sky130_fd_sc_hd__inv_2
*CAP
1 *209:A2 0
2 *204:B 9.8499e-05
3 *205:A2 0.000148007
4 *199:Y 0.00012733
5 *20:16 0.000368542
6 *20:10 0.000249367
7 *204:B *272:A 0.000267254
8 *205:A2 *205:A3 8.07313e-05
9 *20:10 *78:33 5.41797e-05
10 *20:16 *205:A3 9.76928e-05
11 *20:16 *272:A 5.7661e-06
12 *20:16 *78:33 4.46186e-06
13 P[0] *204:B 8.57023e-05
14 P[0] *205:A2 1.33343e-05
15 P[1] *205:A2 5.52238e-05
16 *204:A *204:B 1.74352e-05
17 *204:A *20:10 1.02504e-05
18 *204:A *20:16 0.000174805
19 *257:A *204:B 0.000144773
20 *257:A *20:16 0
21 *19:8 *20:10 9.71197e-05
22 *19:10 *20:10 0.000113038
*RES
1 *199:Y *20:10 16.3893 
2 *20:10 *20:16 7.78571 
3 *20:16 *205:A2 12.3179 
4 *20:16 *204:B 13.2643 
5 *20:10 *209:A2 13.8 
*END

*D_NET *21 0.00153406
*CONN
*I *208:A2 I *D sky130_fd_sc_hd__o211a_1
*I *225:A2 I *D sky130_fd_sc_hd__a211o_1
*I *200:Y O *D sky130_fd_sc_hd__inv_2
*CAP
1 *208:A2 0
2 *225:A2 0.000196251
3 *200:Y 0.000129682
4 *21:8 0.000325933
5 *225:A2 *208:B1 5.80706e-06
6 *225:A2 *70:31 4.25809e-05
7 *225:A2 *70:75 7.85886e-05
8 *225:A2 *78:33 0
9 *225:A2 *81:30 0.0002253
10 *225:A2 *81:36 0.000173083
11 *21:8 *200:A 5.52238e-05
12 *21:8 *208:A1 0.000147465
13 *21:8 *208:C1 1.3701e-05
14 *21:8 *82:34 8.71475e-05
15 *225:A1 *225:A2 5.33005e-05
*RES
1 *200:Y *21:8 12.3179 
2 *21:8 *225:A2 23.8179 
3 *21:8 *208:A2 9.3 
*END

*D_NET *22 0.000603536
*CONN
*I *217:A I *D sky130_fd_sc_hd__or4b_1
*I *201:Y O *D sky130_fd_sc_hd__inv_2
*CAP
1 *217:A 0.000151422
2 *201:Y 0.000151422
3 *217:A *218:B 9.99853e-05
4 *217:A *29:25 0.000145753
5 *217:A *34:8 5.49544e-05
*RES
1 *201:Y *217:A 30.9036 
*END

*D_NET *23 0.000854159
*CONN
*I *237:A1 I *D sky130_fd_sc_hd__a211o_1
*I *202:Y O *D sky130_fd_sc_hd__inv_2
*CAP
1 *237:A1 0.000346435
2 *202:Y 0.000346435
3 *237:A1 *203:A 7.8195e-05
4 *237:A1 *237:A2 7.25207e-05
5 *237:A1 *237:B1 5.80706e-06
6 *237:A1 *24:8 4.76637e-06
7 *237:A1 *84:14 0
*RES
1 *202:Y *237:A1 32.5464 
*END

*D_NET *24 0.00226867
*CONN
*I *237:A2 I *D sky130_fd_sc_hd__a211o_1
*I *217:B I *D sky130_fd_sc_hd__or4b_1
*I *222:A1 I *D sky130_fd_sc_hd__a211oi_2
*I *203:Y O *D sky130_fd_sc_hd__inv_2
*CAP
1 *237:A2 0.000253101
2 *217:B 4.36033e-05
3 *222:A1 0.000172421
4 *203:Y 4.84884e-05
5 *24:10 0.000373586
6 *24:8 0.000459151
7 *217:B *218:A 5.33005e-05
8 *222:A1 *213:A 0
9 *222:A1 *29:25 0.000318316
10 *222:A1 *40:10 5.20669e-05
11 *222:A1 *83:42 0.000194667
12 *237:A2 *35:8 0
13 *237:A2 *54:6 4.82947e-05
14 *237:A2 *58:6 9.77414e-05
15 *237:A2 *84:14 0
16 *237:A2 *84:16 0
17 *24:10 *213:A 0
18 *24:10 *29:25 7.6644e-05
19 *24:10 *35:8 0
20 *24:10 *84:16 0
21 *237:A1 *237:A2 7.25207e-05
22 *237:A1 *24:8 4.76637e-06
*RES
1 *203:Y *24:8 14.3357 
2 *24:8 *24:10 2.55357 
3 *24:10 *222:A1 18.8179 
4 *24:10 *217:B 14.3357 
5 *24:8 *237:A2 18.9964 
*END

*D_NET *25 0.000605442
*CONN
*I *208:B1 I *D sky130_fd_sc_hd__o211a_1
*I *205:X O *D sky130_fd_sc_hd__a31o_1
*CAP
1 *208:B1 0.000189058
2 *205:X 0.000189058
3 *208:B1 *205:A1 0
4 *208:B1 *205:A3 0.000124789
5 *208:B1 *208:A1 2.89016e-05
6 *208:B1 *81:36 1.26048e-05
7 *208:B1 *82:34 5.52238e-05
8 *225:A2 *208:B1 5.80706e-06
*RES
1 *205:X *208:B1 31.1536 
*END

*D_NET *26 0.00260206
*CONN
*I *207:A I *D sky130_fd_sc_hd__inv_2
*I *223:A I *D sky130_fd_sc_hd__nand2_1
*I *226:A I *D sky130_fd_sc_hd__nor2_1
*I *206:X O *D sky130_fd_sc_hd__and4_1
*CAP
1 *207:A 0.000154744
2 *223:A 9.67956e-05
3 *226:A 0
4 *206:X 0.000378162
5 *26:12 0.000187245
6 *26:6 0.000623355
7 *207:A *208:C1 7.94033e-05
8 *207:A *231:B 3.18676e-05
9 *207:A *27:8 0.000124807
10 *223:A *210:A 0
11 *223:A *223:B 5.52302e-05
12 *223:A *228:A2 0.000142856
13 *223:A *30:10 9.31893e-05
14 *26:6 *208:C1 0.000572658
15 *26:12 *210:B 2.38651e-06
16 *26:12 *212:B 0
17 *26:12 *227:B 5.93614e-05
18 *26:12 *29:25 0
*RES
1 *206:X *26:6 14.7643 
2 *26:6 *26:12 10.6429 
3 *26:12 *226:A 9.3 
4 *26:12 *223:A 12.3357 
5 *26:6 *207:A 12.7464 
*END

*D_NET *27 0.00301741
*CONN
*I *208:C1 I *D sky130_fd_sc_hd__o211a_1
*I *227:A I *D sky130_fd_sc_hd__xnor2_1
*I *207:Y O *D sky130_fd_sc_hd__inv_2
*CAP
1 *208:C1 0.000364973
2 *227:A 0
3 *207:Y 0.000159188
4 *27:8 0.000524161
5 *208:C1 *206:B 0.000130419
6 *208:C1 *206:C 0.000337478
7 *208:C1 *208:A1 1.33343e-05
8 *208:C1 *209:B1 3.99614e-06
9 *208:C1 *209:C1 5.52238e-05
10 *208:C1 *28:8 0.000184114
11 *208:C1 *70:12 0.000339745
12 *208:C1 *78:16 5.36586e-05
13 *208:C1 *82:34 4.72917e-05
14 *27:8 *231:B 1.32552e-05
15 *207:A *208:C1 7.94033e-05
16 *207:A *27:8 0.000124807
17 *21:8 *208:C1 1.3701e-05
18 *26:6 *208:C1 0.000572658
*RES
1 *207:Y *27:8 12.6214 
2 *27:8 *227:A 9.3 
3 *27:8 *208:C1 22.1929 
*END

*D_NET *28 0.00239841
*CONN
*I *212:A I *D sky130_fd_sc_hd__xnor2_1
*I *211:C I *D sky130_fd_sc_hd__and3_1
*I *209:X O *D sky130_fd_sc_hd__o211a_1
*CAP
1 *212:A 0.000264012
2 *211:C 0.000216056
3 *209:X 0.000129601
4 *28:8 0.000609668
5 *211:C *210:A 3.41517e-06
6 *211:C *211:A 1.8461e-05
7 *211:C *212:B 7.02797e-05
8 *211:C *29:25 2.09177e-05
9 *211:C *30:10 1.78212e-05
10 *211:C *70:53 0.000103723
11 *211:C *78:16 0
12 *211:C *78:31 0
13 *212:A *212:B 0.000155394
14 *212:A *266:A 3.48951e-05
15 *28:8 *206:A 5.52302e-05
16 *28:8 *206:C 0.000186669
17 *28:8 *78:16 0.000315717
18 *204:A *212:A 0
19 *208:C1 *28:8 0.000184114
20 *258:A *212:A 1.24368e-05
*RES
1 *209:X *28:8 18.8536 
2 *28:8 *211:C 18.0768 
3 *28:8 *212:A 18.8804 
*END

*D_NET *29 0.0028114
*CONN
*I *213:C I *D sky130_fd_sc_hd__and3_1
*I *217:D_N I *D sky130_fd_sc_hd__or4b_1
*I *212:B I *D sky130_fd_sc_hd__xnor2_1
*I *210:Y O *D sky130_fd_sc_hd__nand2_1
*CAP
1 *213:C 8.50962e-05
2 *217:D_N 0
3 *212:B 0.000317101
4 *210:Y 0
5 *29:25 0.000413701
6 *29:6 0.000645706
7 *212:B *227:B 0
8 *212:B *266:A 3.10356e-05
9 *212:B *78:16 5.10822e-05
10 *213:C *34:8 6.14485e-05
11 *29:25 *210:B 9.10431e-06
12 *29:25 *219:A_N 9.67416e-05
13 *29:25 *219:B 0.000128154
14 *29:25 *34:8 5.33005e-05
15 *29:25 *83:42 0.000124131
16 *204:A *212:B 0
17 *211:C *212:B 7.02797e-05
18 *211:C *29:25 2.09177e-05
19 *212:A *212:B 0.000155394
20 *217:A *29:25 0.000145753
21 *222:A1 *29:25 0.000318316
22 *258:A *212:B 7.49387e-06
23 *24:10 *29:25 7.6644e-05
24 *26:12 *212:B 0
25 *26:12 *29:25 0
*RES
1 *210:Y *29:6 13.8 
2 *29:6 *212:B 19.7643 
3 *29:6 *29:25 13.3571 
4 *29:25 *217:D_N 9.3 
5 *29:25 *213:C 10.9429 
*END

*D_NET *30 0.00301123
*CONN
*I *255:A I *D sky130_fd_sc_hd__nor2_1
*I *232:A I *D sky130_fd_sc_hd__and2_1
*I *233:A I *D sky130_fd_sc_hd__nand2_1
*I *211:X O *D sky130_fd_sc_hd__and3_1
*CAP
1 *255:A 3.41062e-05
2 *232:A 0
3 *233:A 0.000168607
4 *211:X 0.000802089
5 *30:10 0.0010048
6 *233:A *233:B 8.2731e-05
7 *233:A *244:A2 2.89016e-05
8 *233:A *256:A 0
9 *255:A *255:B 9.90431e-05
10 *30:10 *210:B 9.99853e-05
11 *30:10 *219:A_N 3.66228e-05
12 *30:10 *223:B 5.52302e-05
13 *30:10 *228:A2 3.48705e-05
14 *30:10 *255:B 2.74192e-05
15 *30:10 *49:10 0.000315328
16 *30:10 *49:23 8.76257e-05
17 *30:10 *70:53 2.28598e-05
18 *211:C *30:10 1.78212e-05
19 *223:A *30:10 9.31893e-05
*RES
1 *211:X *30:10 24.2464 
2 *30:10 *233:A 21.6929 
3 *30:10 *232:A 9.3 
4 *30:10 *255:A 10.2464 
*END

*D_NET *31 0.00101994
*CONN
*I *218:A I *D sky130_fd_sc_hd__xor2_1
*I *213:X O *D sky130_fd_sc_hd__and3_1
*CAP
1 *218:A 0.000263203
2 *213:X 0.000263203
3 *218:A *218:B 0.000261039
4 *218:A *34:8 0.000179194
5 *217:B *218:A 5.33005e-05
*RES
1 *213:X *218:A 23.975 
*END

*D_NET *32 0.000456459
*CONN
*I *216:A0 I *D sky130_fd_sc_hd__mux2_1
*I *214:Y O *D sky130_fd_sc_hd__nand2_1
*CAP
1 *216:A0 0.000147074
2 *214:Y 0.000147074
3 *216:A0 *82:58 7.43578e-06
4 *216:A0 *82:67 9.77274e-05
5 *216:A0 *82:74 5.71472e-05
*RES
1 *214:Y *216:A0 20.7786 
*END

*D_NET *33 0.00271806
*CONN
*I *216:S I *D sky130_fd_sc_hd__mux2_1
*I *238:B I *D sky130_fd_sc_hd__and3_1
*I *239:A2 I *D sky130_fd_sc_hd__a21oi_1
*I *225:B1 I *D sky130_fd_sc_hd__a211o_1
*I *215:X O *D sky130_fd_sc_hd__and3_1
*CAP
1 *216:S 2.23854e-05
2 *238:B 0.000119888
3 *239:A2 8.84025e-05
4 *225:B1 9.07939e-05
5 *215:X 5.96406e-05
6 *33:27 0.000412458
7 *33:23 0.000344542
8 *33:8 0.000268423
9 *225:B1 *81:30 5.25998e-05
10 *225:B1 *82:58 0.000224585
11 *225:B1 *83:23 0
12 *238:B *34:8 4.43256e-05
13 *238:B *56:10 5.71472e-05
14 *239:A2 *238:C 0.000126591
15 *239:A2 *239:A1 4.38059e-05
16 *239:A2 *34:8 0.000303113
17 *239:A2 *82:67 0
18 *239:A2 *82:74 9.90367e-05
19 *33:8 *215:B 5.52302e-05
20 *33:8 *81:30 5.06983e-05
21 *33:23 *82:58 0.00012324
22 *33:23 *82:67 4.72917e-05
23 *33:23 *83:23 0
24 *33:27 *82:67 3.48705e-05
25 *33:27 *82:74 4.89867e-05
*RES
1 *215:X *33:8 15.1571 
2 *33:8 *225:B1 16.6571 
3 *33:8 *33:23 7.08929 
4 *33:23 *33:27 3.01786 
5 *33:27 *239:A2 13.3357 
6 *33:27 *238:B 11.0679 
7 *33:23 *216:S 9.72857 
*END

*D_NET *34 0.00238083
*CONN
*I *218:B I *D sky130_fd_sc_hd__xor2_1
*I *217:C I *D sky130_fd_sc_hd__or4b_1
*I *216:X O *D sky130_fd_sc_hd__mux2_1
*CAP
1 *218:B 6.88946e-05
2 *217:C 0
3 *216:X 0.000316219
4 *34:8 0.000385114
5 *34:8 *213:A 5.20751e-05
6 *34:8 *213:B 0.000117593
7 *34:8 *238:C 7.03295e-05
8 *34:8 *56:10 0.000313241
9 *213:C *34:8 6.14485e-05
10 *217:A *218:B 9.99853e-05
11 *217:A *34:8 5.49544e-05
12 *218:A *218:B 0.000261039
13 *218:A *34:8 0.000179194
14 *238:B *34:8 4.43256e-05
15 *239:A2 *34:8 0.000303113
16 *29:25 *34:8 5.33005e-05
*RES
1 *216:X *34:8 18.8893 
2 *34:8 *217:C 9.3 
3 *34:8 *218:B 11.8893 
*END

*D_NET *35 0.000947568
*CONN
*I *243:A I *D sky130_fd_sc_hd__xor2_1
*I *242:A I *D sky130_fd_sc_hd__nor2_1
*I *217:X O *D sky130_fd_sc_hd__or4b_1
*CAP
1 *243:A 0.000133818
2 *242:A 0
3 *217:X 0.000262295
4 *35:8 0.000396113
5 *243:A *237:B1 0
6 *243:A *243:B 5.62995e-05
7 *243:A *247:C1 9.90431e-05
8 *237:A2 *35:8 0
9 *24:10 *35:8 0
*RES
1 *217:X *35:8 18.175 
2 *35:8 *242:A 13.8 
3 *35:8 *243:A 16.6571 
*END

*D_NET *36 0.000792861
*CONN
*I *229:A_N I *D sky130_fd_sc_hd__and2b_1
*I *230:A I *D sky130_fd_sc_hd__xor2_1
*I *218:X O *D sky130_fd_sc_hd__xor2_1
*CAP
1 *229:A_N 0
2 *230:A 0.000172407
3 *218:X 0.000135049
4 *36:6 0.000307456
5 *230:A *229:B 0.000144512
6 *230:A *46:10 3.34366e-05
7 *230:A *50:10 0
*RES
1 *218:X *36:6 11.4786 
2 *36:6 *230:A 21.8 
3 *36:6 *229:A_N 9.3 
*END

*D_NET *37 0.000514778
*CONN
*I *222:A2 I *D sky130_fd_sc_hd__a211oi_2
*I *219:Y O *D sky130_fd_sc_hd__nand3b_1
*CAP
1 *222:A2 8.86368e-05
2 *219:Y 8.86368e-05
3 *222:A2 *219:B 7.06457e-05
4 *222:A2 *40:10 0.000266859
*RES
1 *219:Y *222:A2 21.1893 
*END

*D_NET *38 0.00219728
*CONN
*I *222:B1 I *D sky130_fd_sc_hd__a211oi_2
*I *238:C I *D sky130_fd_sc_hd__and3_1
*I *239:B1 I *D sky130_fd_sc_hd__a21oi_1
*I *220:X O *D sky130_fd_sc_hd__and4_1
*CAP
1 *222:B1 0.000211482
2 *238:C 9.27139e-05
3 *239:B1 0
4 *220:X 0.000151154
5 *38:12 0.000258624
6 *38:6 0.000528547
7 *222:B1 *221:B 0
8 *222:B1 *78:66 0.000142856
9 *222:B1 *78:81 4.18895e-05
10 *238:C *239:A1 0.000170404
11 *38:6 *78:66 0.000227526
12 *38:12 *213:A 6.8646e-06
13 *38:12 *221:B 5.41794e-05
14 *38:12 *55:8 0
15 *38:12 *83:23 0
16 *38:12 *84:16 3.57844e-05
17 *38:12 *84:22 7.83366e-05
18 *239:A2 *238:C 0.000126591
19 *34:8 *238:C 7.03295e-05
*RES
1 *220:X *38:6 11.4786 
2 *38:6 *38:12 12.4643 
3 *38:12 *239:B1 9.3 
4 *38:12 *238:C 12.175 
5 *38:6 *222:B1 21.7107 
*END

*D_NET *39 7.0902e-05
*CONN
*I *222:C1 I *D sky130_fd_sc_hd__a211oi_2
*I *221:X O *D sky130_fd_sc_hd__and2b_1
*CAP
1 *222:C1 1.95172e-05
2 *221:X 1.95172e-05
3 *222:C1 *43:10 3.18676e-05
*RES
1 *221:X *222:C1 19.1357 
*END

*D_NET *40 0.00230135
*CONN
*I *223:B I *D sky130_fd_sc_hd__nand2_1
*I *226:B I *D sky130_fd_sc_hd__nor2_1
*I *227:B I *D sky130_fd_sc_hd__xnor2_1
*I *222:Y O *D sky130_fd_sc_hd__a211oi_2
*CAP
1 *223:B 1.16062e-05
2 *226:B 0
3 *227:B 0.000193413
4 *222:Y 0.000328772
5 *40:21 1.16062e-05
6 *40:10 0.000522185
7 *227:B *231:B 0
8 *40:10 *228:A2 0
9 *40:10 *228:B1 5.01117e-05
10 *40:10 *43:10 0.00069491
11 *212:B *227:B 0
12 *222:A1 *40:10 5.20669e-05
13 *222:A2 *40:10 0.000266859
14 *223:A *223:B 5.52302e-05
15 *26:12 *227:B 5.93614e-05
16 *30:10 *223:B 5.52302e-05
*RES
1 *222:Y *40:10 22.7464 
2 *40:10 *227:B 16.3536 
3 *40:10 *40:21 4.5 
4 *40:21 *226:B 9.3 
5 *40:21 *223:B 9.83571 
*END

*D_NET *41 0.000381916
*CONN
*I *228:B1 I *D sky130_fd_sc_hd__o21ai_1
*I *223:Y O *D sky130_fd_sc_hd__nand2_1
*CAP
1 *228:B1 0.000124332
2 *223:Y 0.000124332
3 *228:B1 *228:A2 2.79092e-05
4 *228:B1 *231:A 0
5 *228:B1 *43:10 5.52302e-05
6 *40:10 *228:B1 5.01117e-05
*RES
1 *223:Y *228:B1 29.7786 
*END

*D_NET *42 0.000214849
*CONN
*I *225:C1 I *D sky130_fd_sc_hd__a211o_1
*I *224:Y O *D sky130_fd_sc_hd__a21oi_1
*CAP
1 *225:C1 8.46404e-05
2 *224:Y 8.46404e-05
3 *225:C1 *224:A2 0
4 *225:C1 *224:B1 3.18676e-05
5 *225:A1 *225:C1 1.3701e-05
*RES
1 *224:Y *225:C1 20.4036 
*END

*D_NET *43 0.00389854
*CONN
*I *231:A I *D sky130_fd_sc_hd__xnor2_1
*I *228:A1 I *D sky130_fd_sc_hd__o21ai_1
*I *225:X O *D sky130_fd_sc_hd__a211o_1
*CAP
1 *231:A 0.00017724
2 *228:A1 0
3 *225:X 0.00117884
4 *43:10 0.00135608
5 *231:A *228:A2 3.57163e-05
6 *231:A *231:B 3.51442e-05
7 *231:A *46:10 5.33334e-05
8 *231:A *50:10 0
9 *43:10 *221:A_N 3.30352e-05
10 *43:10 *46:10 8.07313e-05
11 *222:C1 *43:10 3.18676e-05
12 *225:A1 *43:10 0.000166416
13 *228:B1 *231:A 0
14 *228:B1 *43:10 5.52302e-05
15 *40:10 *43:10 0.00069491
*RES
1 *225:X *43:10 26.1929 
2 *43:10 *228:A1 9.3 
3 *43:10 *231:A 22.1036 
*END

*D_NET *44 0.000563418
*CONN
*I *228:A2 I *D sky130_fd_sc_hd__o21ai_1
*I *226:Y O *D sky130_fd_sc_hd__nor2_1
*CAP
1 *228:A2 0.000161033
2 *226:Y 0.000161033
3 *223:A *228:A2 0.000142856
4 *228:B1 *228:A2 2.79092e-05
5 *231:A *228:A2 3.57163e-05
6 *30:10 *228:A2 3.48705e-05
7 *40:10 *228:A2 0
*RES
1 *226:Y *228:A2 31.1179 
*END

*D_NET *45 0.00059684
*CONN
*I *231:B I *D sky130_fd_sc_hd__xnor2_1
*I *227:Y O *D sky130_fd_sc_hd__xnor2_1
*CAP
1 *231:B 0.000258286
2 *227:Y 0.000258286
3 *207:A *231:B 3.18676e-05
4 *227:B *231:B 0
5 *231:A *231:B 3.51442e-05
6 *27:8 *231:B 1.32552e-05
*RES
1 *227:Y *231:B 31.3143 
*END

*D_NET *46 0.00133556
*CONN
*I *229:B I *D sky130_fd_sc_hd__and2b_1
*I *230:B I *D sky130_fd_sc_hd__xor2_1
*I *228:Y O *D sky130_fd_sc_hd__o21ai_1
*CAP
1 *229:B 0.000140021
2 *230:B 0
3 *228:Y 0.000371754
4 *46:10 0.000511775
5 *229:B *50:10 0
6 *46:10 *50:10 0
7 *230:A *229:B 0.000144512
8 *230:A *46:10 3.34366e-05
9 *231:A *46:10 5.33334e-05
10 *43:10 *46:10 8.07313e-05
*RES
1 *228:Y *46:10 19.1571 
2 *46:10 *230:B 13.8 
3 *46:10 *229:B 16.6929 
*END

*D_NET *47 0.00111192
*CONN
*I *244:B1_N I *D sky130_fd_sc_hd__o21ba_1
*I *247:A1 I *D sky130_fd_sc_hd__a221o_1
*I *229:X O *D sky130_fd_sc_hd__and2b_1
*CAP
1 *244:B1_N 0.000150966
2 *247:A1 0.000191191
3 *229:X 0
4 *47:4 0.000342157
5 *244:B1_N *234:B 0.000186669
6 *244:B1_N *245:B 5.62995e-05
7 *247:A1 *247:B2 0.000184635
*RES
1 *229:X *47:4 9.3 
2 *47:4 *247:A1 22.675 
3 *47:4 *244:B1_N 12.7464 
*END

*D_NET *48 0.00124859
*CONN
*I *234:A I *D sky130_fd_sc_hd__xnor2_1
*I *244:A1 I *D sky130_fd_sc_hd__o21ba_1
*I *230:X O *D sky130_fd_sc_hd__xor2_1
*CAP
1 *234:A 6.50037e-05
2 *244:A1 0
3 *230:X 0.000470601
4 *48:12 0.000535604
5 *234:A *234:B 9.90431e-05
6 *48:12 *244:A2 7.83366e-05
7 *48:12 *268:A 0
*RES
1 *230:X *48:12 24.4786 
2 *48:12 *244:A1 9.3 
3 *48:12 *234:A 10.6571 
*END

*D_NET *49 0.00162881
*CONN
*I *255:B I *D sky130_fd_sc_hd__nor2_1
*I *232:B I *D sky130_fd_sc_hd__and2_1
*I *233:B I *D sky130_fd_sc_hd__nand2_1
*I *231:Y O *D sky130_fd_sc_hd__xnor2_1
*CAP
1 *255:B 8.53711e-05
2 *232:B 0
3 *233:B 0.000126707
4 *231:Y 0.000163965
5 *49:23 0.00010363
6 *49:10 0.00030893
7 *233:B *50:10 0
8 *255:B *256:A 0.000125057
9 *49:10 *50:10 7.15846e-05
10 *49:23 *256:A 2.77289e-05
11 *49:23 *50:10 3.69047e-06
12 *233:A *233:B 8.2731e-05
13 *255:A *255:B 9.90431e-05
14 *30:10 *255:B 2.74192e-05
15 *30:10 *49:10 0.000315328
16 *30:10 *49:23 8.76257e-05
*RES
1 *231:Y *49:10 13.9786 
2 *49:10 *233:B 21.1571 
3 *49:10 *49:23 0.946429 
4 *49:23 *232:B 9.3 
5 *49:23 *255:B 12.3357 
*END

*D_NET *50 0.00424926
*CONN
*I *256:A I *D sky130_fd_sc_hd__nor2_1
*I *247:B2 I *D sky130_fd_sc_hd__a221o_1
*I *234:B I *D sky130_fd_sc_hd__xnor2_1
*I *232:X O *D sky130_fd_sc_hd__and2_1
*CAP
1 *256:A 0.000387958
2 *247:B2 0.00047026
3 *234:B 0.000237768
4 *232:X 0
5 *50:10 0.00122162
6 *50:4 0.000901549
7 *247:B2 *245:B 0
8 *247:B2 *247:A2 1.66856e-05
9 *247:B2 *247:B1 1.19309e-05
10 *247:B2 *247:C1 1.97695e-05
11 *247:B2 *60:8 8.08976e-05
12 *247:B2 *63:10 4.46186e-06
13 *256:A *256:B 6.97972e-05
14 *256:A *267:A 0.000128154
15 *50:10 *244:A2 0
16 *229:B *50:10 0
17 *230:A *50:10 0
18 *231:A *50:10 0
19 *233:A *256:A 0
20 *233:B *50:10 0
21 *234:A *234:B 9.90431e-05
22 *244:B1_N *234:B 0.000186669
23 *247:A1 *247:B2 0.000184635
24 *255:B *256:A 0.000125057
25 *46:10 *50:10 0
26 *49:10 *50:10 7.15846e-05
27 *49:23 *256:A 2.77289e-05
28 *49:23 *50:10 3.69047e-06
*RES
1 *232:X *50:4 9.3 
2 *50:4 *50:10 12.7679 
3 *50:10 *234:B 18.4429 
4 *50:10 *247:B2 22.4786 
5 *50:4 *256:A 24.8714 
*END

*D_NET *51 0.000656734
*CONN
*I *244:A2 I *D sky130_fd_sc_hd__o21ba_1
*I *233:Y O *D sky130_fd_sc_hd__nand2_1
*CAP
1 *244:A2 0.000274748
2 *233:Y 0.000274748
3 *244:A2 *268:A 0
4 *233:A *244:A2 2.89016e-05
5 *48:12 *244:A2 7.83366e-05
6 *50:10 *244:A2 0
*RES
1 *233:Y *244:A2 32.5107 
*END

*D_NET *52 0.00353023
*CONN
*I *249:A2 I *D sky130_fd_sc_hd__a21o_1
*I *248:A I *D sky130_fd_sc_hd__nor2_1
*I *237:B1 I *D sky130_fd_sc_hd__a211o_1
*I *253:B2 I *D sky130_fd_sc_hd__a2bb2o_1
*I *235:X O *D sky130_fd_sc_hd__and3_1
*CAP
1 *249:A2 0
2 *248:A 2.42575e-05
3 *237:B1 0.00021641
4 *253:B2 0.000102227
5 *235:X 0.000577381
6 *52:29 0.000333214
7 *52:14 0.000772155
8 *237:B1 *251:A 9.83388e-05
9 *237:B1 *84:14 0
10 *248:A *249:B1 0.000110198
11 *248:A *251:A 5.65955e-05
12 *253:B2 *66:22 0.000153467
13 *253:B2 *84:12 0.000148903
14 *52:14 *237:C1 0.000101056
15 *52:14 *246:A 0.000123673
16 *52:14 *246:B 0
17 *52:14 *249:A1 2.14757e-05
18 *52:14 *250:A1 0.000276211
19 *52:14 *62:12 0.000269422
20 *52:14 *84:12 0
21 *52:29 *249:A1 5.68713e-05
22 *52:29 *249:B1 2.76604e-05
23 *52:29 *62:12 5.49044e-05
24 *237:A1 *237:B1 5.80706e-06
25 *243:A *237:B1 0
*RES
1 *235:X *52:14 28.4071 
2 *52:14 *253:B2 20.8536 
3 *52:14 *52:29 2.19643 
4 *52:29 *237:B1 21.7286 
5 *52:29 *248:A 10.675 
6 *52:14 *249:A2 9.3 
*END

*D_NET *53 0.00279546
*CONN
*I *237:C1 I *D sky130_fd_sc_hd__a211o_1
*I *236:Y O *D sky130_fd_sc_hd__a21oi_1
*CAP
1 *237:C1 0.000676796
2 *236:Y 0.000676796
3 *237:C1 *235:A 0.000139907
4 *237:C1 *235:C 0
5 *237:C1 *241:A 1.02132e-05
6 *237:C1 *241:B 0.000271352
7 *237:C1 *246:B 0.000358971
8 *237:C1 *250:A1 0.000108616
9 *237:C1 *54:6 0.000197852
10 *237:C1 *58:6 3.08664e-05
11 *237:C1 *80:6 9.90367e-05
12 *237:C1 *80:10 2.79092e-05
13 *237:C1 *80:58 9.60939e-05
14 *52:14 *237:C1 0.000101056
*RES
1 *236:Y *237:C1 43.475 
*END

*D_NET *54 0.00194922
*CONN
*I *241:A I *D sky130_fd_sc_hd__xnor2_1
*I *250:A1 I *D sky130_fd_sc_hd__o21ba_1
*I *237:X O *D sky130_fd_sc_hd__a211o_1
*CAP
1 *241:A 2.00462e-05
2 *250:A1 0.000144769
3 *237:X 0.000223331
4 *54:6 0.000388146
5 *250:A1 *241:B 0.000146533
6 *250:A1 *66:22 0.000272993
7 *54:6 *58:6 5.56231e-05
8 *54:6 *66:22 5.65955e-05
9 *237:A2 *54:6 4.82947e-05
10 *237:C1 *241:A 1.02132e-05
11 *237:C1 *250:A1 0.000108616
12 *237:C1 *54:6 0.000197852
13 *52:14 *250:A1 0.000276211
*RES
1 *237:X *54:6 13.9429 
2 *54:6 *250:A1 15.1929 
3 *54:6 *241:A 9.72857 
*END

*D_NET *55 0.000953834
*CONN
*I *250:B1_N I *D sky130_fd_sc_hd__o21ba_1
*I *240:A I *D sky130_fd_sc_hd__or2_1
*I *238:X O *D sky130_fd_sc_hd__and3_1
*CAP
1 *250:B1_N 0.000109906
2 *240:A 2.52229e-05
3 *238:X 0.000171357
4 *55:8 0.000306486
5 *240:A *202:A 5.52238e-05
6 *250:B1_N *241:B 0.000127446
7 *250:B1_N *250:A2 7.7674e-05
8 *250:B1_N *84:14 0
9 *55:8 *250:A2 1.41706e-05
10 *55:8 *56:10 6.63476e-05
11 *55:8 *83:23 0
12 *55:8 *84:16 0
13 *38:12 *55:8 0
*RES
1 *238:X *55:8 16.9607 
2 *55:8 *240:A 14.3357 
3 *55:8 *250:B1_N 16.6571 
*END

*D_NET *56 0.0014482
*CONN
*I *250:A2 I *D sky130_fd_sc_hd__o21ba_1
*I *240:B I *D sky130_fd_sc_hd__or2_1
*I *239:Y O *D sky130_fd_sc_hd__a21oi_1
*CAP
1 *250:A2 0.000127279
2 *240:B 0
3 *239:Y 0.000211076
4 *56:10 0.000338356
5 *250:A2 *246:B 0
6 *250:A2 *83:23 4.80729e-05
7 *56:10 *83:23 0.000194833
8 *238:B *56:10 5.71472e-05
9 *250:B1_N *250:A2 7.7674e-05
10 *34:8 *56:10 0.000313241
11 *55:8 *250:A2 1.41706e-05
12 *55:8 *56:10 6.63476e-05
*RES
1 *239:Y *56:10 19.3536 
2 *56:10 *240:B 13.8 
3 *56:10 *250:A2 16.9607 
*END

*D_NET *57 0.000794067
*CONN
*I *241:B I *D sky130_fd_sc_hd__xnor2_1
*I *240:X O *D sky130_fd_sc_hd__or2_1
*CAP
1 *241:B 0.000124368
2 *240:X 0.000124368
3 *241:B *84:14 0
4 *237:C1 *241:B 0.000271352
5 *250:A1 *241:B 0.000146533
6 *250:B1_N *241:B 0.000127446
*RES
1 *240:X *241:B 31.8321 
*END

*D_NET *58 0.00110174
*CONN
*I *243:B I *D sky130_fd_sc_hd__xor2_1
*I *242:B I *D sky130_fd_sc_hd__nor2_1