*SPEF "ieee 1481-1999"
*DESIGN "SARSA_RUIDO_e9"
*DATE "11:31:23 Friday September 12, 2025"
*VENDOR "The OpenROAD Project"
*PROGRAM "OpenROAD"
*VERSION "edf00dff99f6c40d67a30c0e22a8191c5d2ed9d6"
*DESIGN_FLOW "NAME_SCOPE LOCAL" "PIN_CAP NONE"
*DIVIDER /
*DELIMITER :
*BUS_DELIMITER []
*T_UNIT 1 NS
*C_UNIT 1 PF
*R_UNIT 1 OHM
*L_UNIT 1 HENRY

*NAME_MAP
*1 A[0]
*2 A[1]
*3 B[0]
*4 B[1]
*5 P[0]
*6 P[1]
*7 P[2]
*8 P[3]
*11 _0_
*12 _1_
*13 net1
*14 net2
*15 net3
*16 net4
*17 net5
*18 net6
*19 net7
*20 net8
*21 FILLER_0_15
*22 FILLER_0_27
*23 FILLER_0_29
*24 FILLER_0_3
*25 FILLER_0_41
*26 FILLER_0_53
*27 FILLER_0_57
*28 FILLER_0_69
*29 FILLER_1_15
*30 FILLER_1_27
*31 FILLER_1_3
*32 FILLER_1_39
*33 FILLER_1_51
*34 FILLER_1_55
*35 FILLER_1_57
*36 FILLER_1_69
*37 FILLER_2_15
*38 FILLER_2_27
*39 FILLER_2_29
*40 FILLER_2_3
*41 FILLER_2_41
*42 FILLER_2_53
*43 FILLER_2_65
*44 FILLER_2_77
*45 FILLER_3_15
*46 FILLER_3_27
*47 FILLER_3_3
*48 FILLER_3_39
*49 FILLER_3_51
*50 FILLER_3_55
*51 FILLER_3_57
*52 FILLER_3_69
*53 FILLER_4_15
*54 FILLER_4_27
*55 FILLER_4_29
*56 FILLER_4_3
*57 FILLER_4_41
*58 FILLER_4_53
*59 FILLER_4_65
*60 FILLER_5_15
*61 FILLER_5_27
*62 FILLER_5_3
*63 FILLER_5_39
*64 FILLER_5_51
*65 FILLER_5_55
*66 FILLER_5_57
*67 FILLER_5_69
*68 FILLER_6_18
*69 FILLER_6_26
*70 FILLER_6_29
*71 FILLER_6_41
*72 FILLER_6_53
*73 FILLER_6_6
*74 FILLER_6_72
*75 FILLER_6_76
*76 FILLER_7_15
*77 FILLER_7_27
*78 FILLER_7_3
*79 FILLER_7_39
*80 FILLER_7_55
*81 FILLER_7_62
*82 FILLER_7_71
*83 FILLER_7_77
*84 FILLER_8_15
*85 FILLER_8_27
*86 FILLER_8_29
*87 FILLER_8_3
*88 FILLER_8_35
*89 FILLER_8_39
*90 FILLER_8_51
*91 FILLER_8_63
*92 FILLER_8_75
*93 FILLER_9_15
*94 FILLER_9_27
*95 FILLER_9_29
*96 FILLER_9_3
*97 FILLER_9_35
*98 FILLER_9_41
*99 FILLER_9_53
*100 FILLER_9_57
*101 FILLER_9_69
*102 FILLER_9_77
*103 PHY_EDGE_ROW_0_Left_10
*104 PHY_EDGE_ROW_0_Right_0
*105 PHY_EDGE_ROW_1_Left_11
*106 PHY_EDGE_ROW_1_Right_1
*107 PHY_EDGE_ROW_2_Left_12
*108 PHY_EDGE_ROW_2_Right_2
*109 PHY_EDGE_ROW_3_Left_13
*110 PHY_EDGE_ROW_3_Right_3
*111 PHY_EDGE_ROW_4_Left_14
*112 PHY_EDGE_ROW_4_Right_4
*113 PHY_EDGE_ROW_5_Left_15
*114 PHY_EDGE_ROW_5_Right_5
*115 PHY_EDGE_ROW_6_Left_16
*116 PHY_EDGE_ROW_6_Right_6
*117 PHY_EDGE_ROW_7_Left_17
*118 PHY_EDGE_ROW_7_Right_7
*119 PHY_EDGE_ROW_8_Left_18
*120 PHY_EDGE_ROW_8_Right_8
*121 PHY_EDGE_ROW_9_Left_19
*122 PHY_EDGE_ROW_9_Right_9
*123 TAP_TAPCELL_ROW_0_20
*124 TAP_TAPCELL_ROW_0_21
*125 TAP_TAPCELL_ROW_1_22
*126 TAP_TAPCELL_ROW_2_23
*127 TAP_TAPCELL_ROW_3_24
*128 TAP_TAPCELL_ROW_4_25
*129 TAP_TAPCELL_ROW_5_26
*130 TAP_TAPCELL_ROW_6_27
*131 TAP_TAPCELL_ROW_7_28
*132 TAP_TAPCELL_ROW_8_29
*133 TAP_TAPCELL_ROW_9_30
*134 TAP_TAPCELL_ROW_9_31
*135 _2_
*136 _3_
*137 _4_
*138 _5_
*139 _6_
*140 _7_
*141 input1
*142 input2
*143 input3
*144 input4
*145 output5
*146 output6
*147 output7
*148 output8

*PORTS
A[0] I
A[1] I
B[0] I
B[1] I
P[0] O
P[1] O
P[2] O
P[3] O

*D_NET *1 0.000990725
*CONN
*P A[0] I
*I *141:A I *D sky130_fd_sc_hd__buf_1
*CAP
1 A[0] 0.000490358
2 *141:A 0.000490358
3 *141:A P[1] 0
4 *141:A *18:14 1.00084e-05
*RES
1 A[0] *141:A 48.73 
*END

*D_NET *2 0.000722632
*CONN
*P A[1] I
*I *142:A I *D sky130_fd_sc_hd__buf_1
*CAP
1 A[1] 0.000288272
2 *142:A 0.000288272
3 *142:A *144:A 8.06147e-05
4 *142:A *14:8 6.54744e-05
*RES
1 A[1] *142:A 49.5439 
*END

*D_NET *3 0.000538176
*CONN
*P B[0] I
*I *143:A I *D sky130_fd_sc_hd__buf_1
*CAP
1 B[0] 0.000269088
2 *143:A 0.000269088
*RES
1 B[0] *143:A 47.7832 
*END

*D_NET *4 0.000505937
*CONN
*P B[1] I
*I *144:A I *D sky130_fd_sc_hd__buf_1
*CAP
1 B[1] 0.000159794
2 *144:A 0.000159794
3 *144:A P[3] 7.21596e-05
4 *144:A *140:B 1.27424e-05
5 *144:A *14:8 2.08324e-05
6 *142:A *144:A 8.06147e-05
*RES
1 B[1] *144:A 47.4311 
*END

*D_NET *5 0.000673721
*CONN
*P P[0] O
*I *145:X O *D sky130_fd_sc_hd__buf_2
*CAP
1 P[0] 0.000293173
2 *145:X 0.000293173
3 P[0] P[2] 8.73764e-05
*RES
1 *145:X P[0] 48.5734 
*END

*D_NET *6 0.000962014
*CONN
*P P[1] O
*I *146:X O *D sky130_fd_sc_hd__buf_2
*CAP
1 P[1] 0.000481007
2 *146:X 0.000481007
3 *141:A P[1] 0
*RES
1 *146:X P[1] 48.5021 
*END

*D_NET *7 0.000615305
*CONN
*P P[2] O
*I *147:X O *D sky130_fd_sc_hd__buf_2
*CAP
1 P[2] 0.000220276
2 *147:X 0.000220276
3 P[2] P[3] 8.73764e-05
4 P[0] P[2] 8.73764e-05
*RES
1 *147:X P[2] 47.8691 
*END

*D_NET *8 0.000529877
*CONN
*P P[3] O
*I *148:X O *D sky130_fd_sc_hd__buf_2
*CAP
1 P[3] 0.000180042
2 *148:X 0.000180042
3 P[3] *19:10 1.02561e-05
4 P[2] P[3] 8.73764e-05
5 *144:A P[3] 7.21596e-05
*RES
1 *148:X P[3] 47.1648 
*END

*D_NET *11 0.000554596
*CONN
*I *139:A I *D sky130_fd_sc_hd__nor2_1
*I *137:X O *D sky130_fd_sc_hd__o211a_1
*CAP
1 *139:A 0
2 *137:X 0.000229187
3 *11:10 0.000229187
4 *11:10 *137:A1 7.02071e-05
5 *11:10 *13:8 2.60152e-05
*RES
1 *137:X *11:10 41.48 
2 *11:10 *139:A 38 
*END

*D_NET *12 0.00176427
*CONN
*I *139:B I *D sky130_fd_sc_hd__nor2_1
*I *138:Y O *D sky130_fd_sc_hd__a22oi_1
*CAP
1 *139:B 0.000412103
2 *138:Y 0.000182109
3 *12:8 0.000594212
4 *139:B *13:27 0.000490956
5 *139:B *18:14 2.31581e-05
6 *12:8 *13:27 2.96369e-05
7 *12:8 *14:44 3.20914e-05
*RES
1 *138:Y *12:8 40.9621 
2 *12:8 *139:B 47.2179 
*END

*D_NET *13 0.00304115
*CONN
*I *135:B I *D sky130_fd_sc_hd__and2_1
*I *138:A1 I *D sky130_fd_sc_hd__a22oi_1
*I *137:A1 I *D sky130_fd_sc_hd__o211a_1
*I *141:X O *D sky130_fd_sc_hd__buf_1
*CAP
1 *135:B 0.00010871
2 *138:A1 0
3 *137:A1 0.000214199
4 *141:X 0.000141719
5 *13:29 0.00010871
6 *13:27 0.00045308
7 *13:8 0.000808997
8 *135:B *135:A 7.88926e-05
9 *135:B *138:B2 0
10 *135:B *14:29 2.65879e-05
11 *135:B *15:16 7.44257e-05
12 *135:B *16:16 0.000368145
13 *13:8 *18:14 4.08641e-05
14 *139:B *13:27 0.000490956
15 *11:10 *137:A1 7.02071e-05
16 *11:10 *13:8 2.60152e-05
17 *12:8 *13:27 2.96369e-05
*RES
1 *141:X *13:8 40.9621 
2 *13:8 *137:A1 41.9564 
3 *13:8 *13:27 36.9393 
4 *13:27 *13:29 15 
5 *13:29 *138:A1 23 
6 *13:29 *135:B 27.4536 
*END

*D_NET *14 0.00460115
*CONN
*I *136:B I *D sky130_fd_sc_hd__and3_1
*I *138:B1 I *D sky130_fd_sc_hd__a22oi_1
*I *137:B1 I *D sky130_fd_sc_hd__o211a_1
*I *140:B I *D sky130_fd_sc_hd__and3b_1
*I *142:X O *D sky130_fd_sc_hd__buf_1
*CAP
1 *136:B 0
2 *138:B1 0
3 *137:B1 0.000254048
4 *140:B 0.000466071
5 *142:X 0.000270611
6 *14:44 5.9998e-05
7 *14:29 0.000805308
8 *14:27 0.000681637
9 *14:8 0.000927056
10 *137:B1 *137:A2 2.07582e-05
11 *137:B1 *15:16 0.000120985
12 *140:B *16:47 0
13 *140:B *19:10 3.10046e-05
14 *140:B *20:10 8.4047e-05
15 *14:8 *16:47 0
16 *14:27 *16:8 0.000153455
17 *14:27 *16:10 1.94693e-05
18 *14:27 *20:10 0.000315852
19 *14:29 *135:A 7.42621e-05
20 *14:29 *15:16 5.41385e-05
21 *14:29 *16:10 2.25419e-05
22 *14:29 *16:16 8.21759e-05
23 *14:44 *15:12 0
24 *135:B *14:29 2.65879e-05
25 *142:A *14:8 6.54744e-05
26 *144:A *140:B 1.27424e-05
27 *144:A *14:8 2.08324e-05
28 *12:8 *14:44 3.20914e-05
*RES
1 *142:X *14:8 43.075 
2 *14:8 *140:B 44.3386 
3 *14:8 *14:27 20.9036 
4 *14:27 *14:29 7.76786 
5 *14:29 *137:B1 27.205 
6 *14:29 *14:44 31.2014 
7 *14:44 *138:B1 23 
8 *14:27 *136:B 23 
*END

*D_NET *15 0.004319
*CONN
*I *137:C1 I *D sky130_fd_sc_hd__o211a_1
*I *135:A I *D sky130_fd_sc_hd__and2_1
*I *138:B2 I *D sky130_fd_sc_hd__a22oi_1
*I *143:X O *D sky130_fd_sc_hd__buf_1
*CAP
1 *137:C1 0
2 *135:A 2.97185e-05
3 *138:B2 1.51656e-05
4 *143:X 0.00159245
5 *15:16 0.00014739
6 *15:12 0.000288526
7 *15:6 0.00177847
8 *138:B2 *138:A2 0
9 *15:16 *137:A2 3.08039e-05
10 *15:16 *138:A2 2.15009e-05
11 *15:16 *16:16 1.22822e-05
12 *135:B *135:A 7.88926e-05
13 *135:B *138:B2 0
14 *135:B *15:16 7.44257e-05
15 *137:B1 *15:16 0.000120985
16 *14:29 *135:A 7.42621e-05
17 *14:29 *15:16 5.41385e-05
18 *14:44 *15:12 0
*RES
1 *143:X *15:6 43.6314 
2 *15:6 *15:12 32.2579 
3 *15:12 *15:16 3.50071 
4 *15:16 *138:B2 23.4971 
5 *15:16 *135:A 24.5743 
6 *15:12 *137:C1 23 
*END

*D_NET *16 0.00338301
*CONN
*I *140:C I *D sky130_fd_sc_hd__and3b_1
*I *136:A I *D sky130_fd_sc_hd__and3_1
*I *138:A2 I *D sky130_fd_sc_hd__a22oi_1
*I *137:A2 I *D sky130_fd_sc_hd__o211a_1
*I *144:X O *D sky130_fd_sc_hd__buf_1
*CAP
1 *140:C 0
2 *136:A 0
3 *138:A2 3.18892e-05
4 *137:A2 0.000205756
5 *144:X 0.000230317
6 *16:47 0.000249538
7 *16:16 0.000636879
8 *16:10 0.000440569
9 *16:8 0.00052119
10 *16:10 *136:C 0.000107741
11 *16:16 *136:C 4.2573e-05
12 *16:16 *17:6 0.000185428
13 *16:47 *145:A 0
14 *16:47 *17:10 0
15 *16:47 *20:10 0
16 *135:B *16:16 0.000368145
17 *137:B1 *137:A2 2.07582e-05
18 *138:B2 *138:A2 0
19 *140:B *16:47 0
20 *14:8 *16:47 0
21 *14:27 *16:8 0.000153455
22 *14:27 *16:10 1.94693e-05
23 *14:29 *16:10 2.25419e-05
24 *14:29 *16:16 8.21759e-05
25 *15:16 *137:A2 3.08039e-05
26 *15:16 *138:A2 2.15009e-05
27 *15:16 *16:16 1.22822e-05
*RES
1 *144:X *16:8 27.93 
2 *16:8 *16:10 1.57429 
3 *16:10 *16:16 8.41 
4 *16:16 *137:A2 26.3764 
5 *16:16 *138:A2 24.0202 
6 *16:10 *136:A 23 
7 *16:8 *16:47 34.1636 
8 *16:47 *140:C 23 
*END

*D_NET *17 0.00246916
*CONN
*I *136:C I *D sky130_fd_sc_hd__and3_1
*I *140:A_N I *D sky130_fd_sc_hd__and3b_1
*I *145:A I *D sky130_fd_sc_hd__buf_2
*I *135:X O *D sky130_fd_sc_hd__and2_1
*CAP
1 *136:C 9.90556e-05
2 *140:A_N 0
3 *145:A 0.000620839
4 *135:X 0.000123237
5 *17:10 0.000844414
6 *17:6 0.000445868
7 *16:10 *136:C 0.000107741
8 *16:16 *136:C 4.2573e-05
9 *16:16 *17:6 0.000185428
10 *16:47 *145:A 0
11 *16:47 *17:10 0
*RES
1 *135:X *17:6 25.0507 
2 *17:6 *17:10 19.0186 
3 *17:10 *145:A 49.6414 
4 *17:10 *140:A_N 38 
5 *17:6 *136:C 24.6571 
*END

*D_NET *18 0.000717943
*CONN
*I *146:A I *D sky130_fd_sc_hd__buf_2
*I *139:Y O *D sky130_fd_sc_hd__nor2_1
*CAP
1 *146:A 9.14639e-05
2 *139:Y 0.000230493
3 *18:14 0.000321956
4 *139:B *18:14 2.31581e-05
5 *141:A *18:14 1.00084e-05
6 *13:8 *18:14 4.08641e-05
*RES
1 *139:Y *18:14 42.1221 
2 *18:14 *146:A 39.5743 
*END

*D_NET *19 0.000692114
*CONN
*I *147:A I *D sky130_fd_sc_hd__buf_2
*I *140:X O *D sky130_fd_sc_hd__and3b_1
*CAP
1 *147:A 0
2 *140:X 0.000325427
3 *19:10 0.000325427
4 P[3] *19:10 1.02561e-05
5 *140:B *19:10 3.10046e-05
*RES
1 *140:X *19:10 42.9093 
2 *19:10 *147:A 38 
*END

*D_NET *20 0.00103206
*CONN
*I *148:A I *D sky130_fd_sc_hd__buf_2
*I *136:X O *D sky130_fd_sc_hd__and3_1
*CAP
1 *148:A 0
2 *136:X 0.00031608
3 *20:10 0.00031608
4 *140:B *20:10 8.4047e-05
5 *14:27 *20:10 0.000315852
6 *16:47 *20:10 0
*RES
1 *136:X *20:10 43.7379 
2 *20:10 *148:A 38 
*END
