* NGSPICE file created from mult8_2bits_2op_e2485.ext - technology: sky130A

* Black-box entry subcircuit for sky130_fd_sc_hd__tapvpwrvgnd_1 abstract view
.subckt sky130_fd_sc_hd__tapvpwrvgnd_1 VGND VPWR
.ends

* Black-box entry subcircuit for sky130_ef_sc_hd__decap_12 abstract view
.subckt sky130_ef_sc_hd__decap_12 VPWR VGND VPB VNB
.ends

* Black-box entry subcircuit for sky130_fd_sc_hd__xnor2_1 abstract view
.subckt sky130_fd_sc_hd__xnor2_1 A B VGND VNB VPB VPWR Y
.ends

* Black-box entry subcircuit for sky130_fd_sc_hd__nor2_1 abstract view
.subckt sky130_fd_sc_hd__nor2_1 A B VGND VNB VPB VPWR Y
.ends

* Black-box entry subcircuit for sky130_fd_sc_hd__fill_2 abstract view
.subckt sky130_fd_sc_hd__fill_2 VGND VNB VPB VPWR
.ends

* Black-box entry subcircuit for sky130_fd_sc_hd__buf_2 abstract view
.subckt sky130_fd_sc_hd__buf_2 A VGND VNB VPB VPWR X
.ends

* Black-box entry subcircuit for sky130_fd_sc_hd__nand2_1 abstract view
.subckt sky130_fd_sc_hd__nand2_1 A B VGND VNB VPB VPWR Y
.ends

* Black-box entry subcircuit for sky130_fd_sc_hd__a21bo_1 abstract view
.subckt sky130_fd_sc_hd__a21bo_1 A1 A2 B1_N VGND VNB VPB VPWR X
.ends

* Black-box entry subcircuit for sky130_fd_sc_hd__decap_6 abstract view
.subckt sky130_fd_sc_hd__decap_6 VGND VNB VPB VPWR
.ends

* Black-box entry subcircuit for sky130_fd_sc_hd__or2_1 abstract view
.subckt sky130_fd_sc_hd__or2_1 A B VGND VNB VPB VPWR X
.ends

* Black-box entry subcircuit for sky130_fd_sc_hd__and3_1 abstract view
.subckt sky130_fd_sc_hd__and3_1 A B C VGND VNB VPB VPWR X
.ends

* Black-box entry subcircuit for sky130_fd_sc_hd__fill_1 abstract view
.subckt sky130_fd_sc_hd__fill_1 VGND VNB VPB VPWR
.ends

* Black-box entry subcircuit for sky130_fd_sc_hd__decap_8 abstract view
.subckt sky130_fd_sc_hd__decap_8 VGND VNB VPB VPWR
.ends

* Black-box entry subcircuit for sky130_fd_sc_hd__decap_3 abstract view
.subckt sky130_fd_sc_hd__decap_3 VGND VNB VPB VPWR
.ends

* Black-box entry subcircuit for sky130_fd_sc_hd__buf_6 abstract view
.subckt sky130_fd_sc_hd__buf_6 A VGND VNB VPB VPWR X
.ends

* Black-box entry subcircuit for sky130_fd_sc_hd__a21o_1 abstract view
.subckt sky130_fd_sc_hd__a21o_1 A1 A2 B1 VGND VNB VPB VPWR X
.ends

* Black-box entry subcircuit for sky130_fd_sc_hd__and4_1 abstract view
.subckt sky130_fd_sc_hd__and4_1 A B C D VGND VNB VPB VPWR X
.ends

* Black-box entry subcircuit for sky130_fd_sc_hd__decap_4 abstract view
.subckt sky130_fd_sc_hd__decap_4 VGND VNB VPB VPWR
.ends

* Black-box entry subcircuit for sky130_fd_sc_hd__and2_1 abstract view
.subckt sky130_fd_sc_hd__and2_1 A B VGND VNB VPB VPWR X
.ends

* Black-box entry subcircuit for sky130_fd_sc_hd__a31o_1 abstract view
.subckt sky130_fd_sc_hd__a31o_1 A1 A2 A3 B1 VGND VNB VPB VPWR X
.ends

* Black-box entry subcircuit for sky130_fd_sc_hd__and4bb_1 abstract view
.subckt sky130_fd_sc_hd__and4bb_1 A_N B_N C D VGND VNB VPB VPWR X
.ends

* Black-box entry subcircuit for sky130_fd_sc_hd__a21oi_1 abstract view
.subckt sky130_fd_sc_hd__a21oi_1 A1 A2 B1 VGND VNB VPB VPWR Y
.ends

* Black-box entry subcircuit for sky130_fd_sc_hd__dlygate4sd1_1 abstract view
.subckt sky130_fd_sc_hd__dlygate4sd1_1 A VGND VNB VPB VPWR X
.ends

* Black-box entry subcircuit for sky130_fd_sc_hd__or4bb_1 abstract view
.subckt sky130_fd_sc_hd__or4bb_1 A B C_N D_N VGND VNB VPB VPWR X
.ends

* Black-box entry subcircuit for sky130_fd_sc_hd__xor2_2 abstract view
.subckt sky130_fd_sc_hd__xor2_2 A B VGND VNB VPB VPWR X
.ends

* Black-box entry subcircuit for sky130_fd_sc_hd__xor2_1 abstract view
.subckt sky130_fd_sc_hd__xor2_1 A B VGND VNB VPB VPWR X
.ends

* Black-box entry subcircuit for sky130_fd_sc_hd__a31oi_4 abstract view
.subckt sky130_fd_sc_hd__a31oi_4 A1 A2 A3 B1 VGND VNB VPB VPWR Y
.ends

* Black-box entry subcircuit for sky130_fd_sc_hd__o21ai_1 abstract view
.subckt sky130_fd_sc_hd__o21ai_1 A1 A2 B1 VGND VNB VPB VPWR Y
.ends

* Black-box entry subcircuit for sky130_fd_sc_hd__a21oi_2 abstract view
.subckt sky130_fd_sc_hd__a21oi_2 A1 A2 B1 VGND VNB VPB VPWR Y
.ends

* Black-box entry subcircuit for sky130_fd_sc_hd__nand3_1 abstract view
.subckt sky130_fd_sc_hd__nand3_1 A B C VGND VNB VPB VPWR Y
.ends

* Black-box entry subcircuit for sky130_fd_sc_hd__mux2_1 abstract view
.subckt sky130_fd_sc_hd__mux2_1 A0 A1 S VGND VNB VPB VPWR X
.ends

* Black-box entry subcircuit for sky130_fd_sc_hd__and4b_1 abstract view
.subckt sky130_fd_sc_hd__and4b_1 A_N B C D VGND VNB VPB VPWR X
.ends

* Black-box entry subcircuit for sky130_fd_sc_hd__o21ai_2 abstract view
.subckt sky130_fd_sc_hd__o21ai_2 A1 A2 B1 VGND VNB VPB VPWR Y
.ends

* Black-box entry subcircuit for sky130_fd_sc_hd__a311o_1 abstract view
.subckt sky130_fd_sc_hd__a311o_1 A1 A2 A3 B1 C1 VGND VNB VPB VPWR X
.ends

* Black-box entry subcircuit for sky130_fd_sc_hd__nor3_1 abstract view
.subckt sky130_fd_sc_hd__nor3_1 A B C VGND VNB VPB VPWR Y
.ends

* Black-box entry subcircuit for sky130_fd_sc_hd__xnor2_2 abstract view
.subckt sky130_fd_sc_hd__xnor2_2 A B VGND VNB VPB VPWR Y
.ends

* Black-box entry subcircuit for sky130_fd_sc_hd__nor4_1 abstract view
.subckt sky130_fd_sc_hd__nor4_1 A B C D VGND VNB VPB VPWR Y
.ends

* Black-box entry subcircuit for sky130_fd_sc_hd__or3_4 abstract view
.subckt sky130_fd_sc_hd__or3_4 A B C VGND VNB VPB VPWR X
.ends

* Black-box entry subcircuit for sky130_fd_sc_hd__a211oi_1 abstract view
.subckt sky130_fd_sc_hd__a211oi_1 A1 A2 B1 C1 VGND VNB VPB VPWR Y
.ends

* Black-box entry subcircuit for sky130_fd_sc_hd__a41o_1 abstract view
.subckt sky130_fd_sc_hd__a41o_1 A1 A2 A3 A4 B1 VGND VNB VPB VPWR X
.ends

* Black-box entry subcircuit for sky130_fd_sc_hd__nand2b_1 abstract view
.subckt sky130_fd_sc_hd__nand2b_1 A_N B VGND VNB VPB VPWR Y
.ends

* Black-box entry subcircuit for sky130_fd_sc_hd__o31ai_1 abstract view
.subckt sky130_fd_sc_hd__o31ai_1 A1 A2 A3 B1 VGND VNB VPB VPWR Y
.ends

* Black-box entry subcircuit for sky130_fd_sc_hd__or2_4 abstract view
.subckt sky130_fd_sc_hd__or2_4 A B VGND VNB VPB VPWR X
.ends

* Black-box entry subcircuit for sky130_fd_sc_hd__buf_8 abstract view
.subckt sky130_fd_sc_hd__buf_8 A VGND VNB VPB VPWR X
.ends

* Black-box entry subcircuit for sky130_fd_sc_hd__buf_4 abstract view
.subckt sky130_fd_sc_hd__buf_4 A VGND VNB VPB VPWR X
.ends

* Black-box entry subcircuit for sky130_fd_sc_hd__o211a_1 abstract view
.subckt sky130_fd_sc_hd__o211a_1 A1 A2 B1 C1 VGND VNB VPB VPWR X
.ends

* Black-box entry subcircuit for sky130_fd_sc_hd__o31a_1 abstract view
.subckt sky130_fd_sc_hd__o31a_1 A1 A2 A3 B1 VGND VNB VPB VPWR X
.ends

* Black-box entry subcircuit for sky130_fd_sc_hd__clkbuf_4 abstract view
.subckt sky130_fd_sc_hd__clkbuf_4 A VGND VNB VPB VPWR X
.ends

* Black-box entry subcircuit for sky130_fd_sc_hd__inv_2 abstract view
.subckt sky130_fd_sc_hd__inv_2 A VGND VNB VPB VPWR Y
.ends

* Black-box entry subcircuit for sky130_fd_sc_hd__and3b_1 abstract view
.subckt sky130_fd_sc_hd__and3b_1 A_N B C VGND VNB VPB VPWR X
.ends

* Black-box entry subcircuit for sky130_fd_sc_hd__or3_1 abstract view
.subckt sky130_fd_sc_hd__or3_1 A B C VGND VNB VPB VPWR X
.ends

* Black-box entry subcircuit for sky130_fd_sc_hd__buf_1 abstract view
.subckt sky130_fd_sc_hd__buf_1 A VGND VNB VPB VPWR X
.ends

* Black-box entry subcircuit for sky130_fd_sc_hd__o21a_1 abstract view
.subckt sky130_fd_sc_hd__o21a_1 A1 A2 B1 VGND VNB VPB VPWR X
.ends

* Black-box entry subcircuit for sky130_fd_sc_hd__a22o_1 abstract view
.subckt sky130_fd_sc_hd__a22o_1 A1 A2 B1 B2 VGND VNB VPB VPWR X
.ends

* Black-box entry subcircuit for sky130_fd_sc_hd__nor4b_1 abstract view
.subckt sky130_fd_sc_hd__nor4b_1 A B C D_N VGND VNB VPB VPWR Y
.ends

* Black-box entry subcircuit for sky130_fd_sc_hd__and2b_1 abstract view
.subckt sky130_fd_sc_hd__and2b_1 A_N B VGND VNB VPB VPWR X
.ends

* Black-box entry subcircuit for sky130_fd_sc_hd__o21ba_1 abstract view
.subckt sky130_fd_sc_hd__o21ba_1 A1 A2 B1_N VGND VNB VPB VPWR X
.ends

* Black-box entry subcircuit for sky130_fd_sc_hd__clkbuf_2 abstract view
.subckt sky130_fd_sc_hd__clkbuf_2 A VGND VNB VPB VPWR X
.ends

* Black-box entry subcircuit for sky130_fd_sc_hd__a211o_1 abstract view
.subckt sky130_fd_sc_hd__a211o_1 A1 A2 B1 C1 VGND VNB VPB VPWR X
.ends

* Black-box entry subcircuit for sky130_fd_sc_hd__nand4_1 abstract view
.subckt sky130_fd_sc_hd__nand4_1 A B C D VGND VNB VPB VPWR Y
.ends

* Black-box entry subcircuit for sky130_fd_sc_hd__a211oi_2 abstract view
.subckt sky130_fd_sc_hd__a211oi_2 A1 A2 B1 C1 VGND VNB VPB VPWR Y
.ends

* Black-box entry subcircuit for sky130_fd_sc_hd__nor2_2 abstract view
.subckt sky130_fd_sc_hd__nor2_2 A B VGND VNB VPB VPWR Y
.ends

* Black-box entry subcircuit for sky130_fd_sc_hd__clkbuf_1 abstract view
.subckt sky130_fd_sc_hd__clkbuf_1 A VGND VNB VPB VPWR X
.ends

* Black-box entry subcircuit for sky130_fd_sc_hd__and2_4 abstract view
.subckt sky130_fd_sc_hd__and2_4 A B VGND VNB VPB VPWR X
.ends

* Black-box entry subcircuit for sky130_fd_sc_hd__o22ai_1 abstract view
.subckt sky130_fd_sc_hd__o22ai_1 A1 A2 B1 B2 VGND VNB VPB VPWR Y
.ends

* Black-box entry subcircuit for sky130_fd_sc_hd__or4_4 abstract view
.subckt sky130_fd_sc_hd__or4_4 A B C D VGND VNB VPB VPWR X
.ends

* Black-box entry subcircuit for sky130_fd_sc_hd__a32o_1 abstract view
.subckt sky130_fd_sc_hd__a32o_1 A1 A2 A3 B1 B2 VGND VNB VPB VPWR X
.ends

* Black-box entry subcircuit for sky130_fd_sc_hd__a21oi_4 abstract view
.subckt sky130_fd_sc_hd__a21oi_4 A1 A2 B1 VGND VNB VPB VPWR Y
.ends

* Black-box entry subcircuit for sky130_fd_sc_hd__a41o_4 abstract view
.subckt sky130_fd_sc_hd__a41o_4 A1 A2 A3 A4 B1 VGND VNB VPB VPWR X
.ends

* Black-box entry subcircuit for sky130_fd_sc_hd__nor2_4 abstract view
.subckt sky130_fd_sc_hd__nor2_4 A B VGND VNB VPB VPWR Y
.ends

* Black-box entry subcircuit for sky130_fd_sc_hd__a22oi_1 abstract view
.subckt sky130_fd_sc_hd__a22oi_1 A1 A2 B1 B2 VGND VNB VPB VPWR Y
.ends

* Black-box entry subcircuit for sky130_fd_sc_hd__or4bb_4 abstract view
.subckt sky130_fd_sc_hd__or4bb_4 A B C_N D_N VGND VNB VPB VPWR X
.ends

* Black-box entry subcircuit for sky130_fd_sc_hd__a21boi_1 abstract view
.subckt sky130_fd_sc_hd__a21boi_1 A1 A2 B1_N VGND VNB VPB VPWR Y
.ends

* Black-box entry subcircuit for sky130_fd_sc_hd__conb_1 abstract view
.subckt sky130_fd_sc_hd__conb_1 VGND VNB VPB VPWR HI LO
.ends

* Black-box entry subcircuit for sky130_fd_sc_hd__a311oi_4 abstract view
.subckt sky130_fd_sc_hd__a311oi_4 A1 A2 A3 B1 C1 VGND VNB VPB VPWR Y
.ends

* Black-box entry subcircuit for sky130_fd_sc_hd__xnor2_4 abstract view
.subckt sky130_fd_sc_hd__xnor2_4 A B VGND VNB VPB VPWR Y
.ends

* Black-box entry subcircuit for sky130_fd_sc_hd__a21bo_4 abstract view
.subckt sky130_fd_sc_hd__a21bo_4 A1 A2 B1_N VGND VNB VPB VPWR X
.ends

* Black-box entry subcircuit for sky130_fd_sc_hd__dlymetal6s2s_1 abstract view
.subckt sky130_fd_sc_hd__dlymetal6s2s_1 A VGND VNB VPB VPWR X
.ends

* Black-box entry subcircuit for sky130_fd_sc_hd__nand3_2 abstract view
.subckt sky130_fd_sc_hd__nand3_2 A B C VGND VNB VPB VPWR Y
.ends

.subckt mult8_2bits_2op_e2485 A[0] A[1] A[2] A[3] A[4] A[5] A[6] A[7] B[0] B[1] B[2]
+ B[3] B[4] B[5] B[6] B[7] P[0] P[10] P[11] P[12] P[13] P[14] P[15] P[1] P[2] P[3]
+ P[4] P[5] P[6] P[7] P[8] P[9] VGND VPWR
XTAP_TAPCELL_ROW_37_401 VGND VPWR sky130_fd_sc_hd__tapvpwrvgnd_1
XFILLER_52_29 VPWR VGND VPWR VGND sky130_ef_sc_hd__decap_12
XFILLER_22_177 VPWR VGND VPWR VGND sky130_ef_sc_hd__decap_12
X_501_ _146_ _149_ VGND VGND VPWR VPWR net17 sky130_fd_sc_hd__xnor2_1
X_432_ _081_ _082_ VGND VGND VPWR VPWR _083_ sky130_fd_sc_hd__nor2_1
XFILLER_26_41 VPWR VGND VPWR VGND sky130_ef_sc_hd__decap_12
XFILLER_26_85 VGND VGND VPWR VPWR sky130_fd_sc_hd__fill_2
Xrebuffer7 _191_ VGND VGND VPWR VPWR net63 sky130_fd_sc_hd__buf_2
X_294_ net52 net41 VGND VGND VPWR VPWR _228_ sky130_fd_sc_hd__nand2_1
X_363_ _014_ _015_ _011_ VGND VGND VPWR VPWR _016_ sky130_fd_sc_hd__a21bo_1
XFILLER_13_144 VPWR VGND VPWR VGND sky130_ef_sc_hd__decap_12
XFILLER_13_166 VGND VGND VPWR VPWR sky130_fd_sc_hd__fill_2
XFILLER_59_317 VPWR VGND VPWR VGND sky130_ef_sc_hd__decap_12
XFILLER_63_39 VPWR VGND VPWR VGND sky130_ef_sc_hd__decap_12
XFILLER_27_225 VPWR VGND VPWR VGND sky130_ef_sc_hd__decap_12
XTAP_TAPCELL_ROW_40_418 VGND VPWR sky130_fd_sc_hd__tapvpwrvgnd_1
XFILLER_2_357 VGND VGND VPWR VPWR sky130_fd_sc_hd__decap_6
XFILLER_2_302 VGND VGND VPWR VPWR sky130_fd_sc_hd__decap_6
XFILLER_12_65 VPWR VGND VPWR VGND sky130_ef_sc_hd__decap_12
XTAP_TAPCELL_ROW_5_173 VGND VPWR sky130_fd_sc_hd__tapvpwrvgnd_1
XFILLER_41_261 VPWR VGND VPWR VGND sky130_ef_sc_hd__decap_12
X_415_ _047_ _065_ VGND VGND VPWR VPWR _066_ sky130_fd_sc_hd__or2_1
X_346_ net42 net47 _242_ VGND VGND VPWR VPWR _278_ sky130_fd_sc_hd__and3_1
XFILLER_56_309 VPWR VGND VPWR VGND sky130_ef_sc_hd__decap_12
XFILLER_49_361 VPWR VGND VPWR VGND sky130_ef_sc_hd__decap_12
XTAP_TAPCELL_ROW_19_275 VGND VPWR sky130_fd_sc_hd__tapvpwrvgnd_1
XTAP_TAPCELL_ROW_62_576 VGND VPWR sky130_fd_sc_hd__tapvpwrvgnd_1
XFILLER_32_261 VGND VGND VPWR VPWR sky130_fd_sc_hd__fill_2
XFILLER_20_401 VGND VGND VPWR VPWR sky130_fd_sc_hd__fill_2
XFILLER_59_169 VPWR VGND VPWR VGND sky130_ef_sc_hd__decap_12
XFILLER_59_125 VPWR VGND VPWR VGND sky130_ef_sc_hd__decap_12
XTAP_TAPCELL_ROW_2_154 VGND VPWR sky130_fd_sc_hd__tapvpwrvgnd_1
XTAP_TAPCELL_ROW_53_510 VGND VPWR sky130_fd_sc_hd__tapvpwrvgnd_1
XFILLER_30_209 VPWR VGND VPWR VGND sky130_ef_sc_hd__decap_12
XFILLER_15_217 VGND VGND VPWR VPWR sky130_fd_sc_hd__fill_2
XFILLER_7_405 VGND VGND VPWR VPWR sky130_fd_sc_hd__fill_2
XFILLER_38_309 VPWR VGND VPWR VGND sky130_ef_sc_hd__decap_12
XFILLER_2_165 VPWR VGND VPWR VGND sky130_ef_sc_hd__decap_12
XFILLER_2_121 VPWR VGND VPWR VGND sky130_ef_sc_hd__decap_12
XFILLER_48_83 VGND VGND VPWR VPWR sky130_fd_sc_hd__fill_1
XFILLER_0_57 VPWR VGND VPWR VGND sky130_ef_sc_hd__decap_12
XFILLER_9_55 VGND VGND VPWR VPWR sky130_fd_sc_hd__fill_1
X_329_ net52 net36 _241_ VGND VGND VPWR VPWR _261_ sky130_fd_sc_hd__and3_1
XFILLER_50_3 VPWR VGND VPWR VGND sky130_ef_sc_hd__decap_12
XFILLER_56_139 VGND VGND VPWR VPWR sky130_fd_sc_hd__fill_1
XFILLER_64_194 VGND VGND VPWR VPWR sky130_fd_sc_hd__fill_2
XFILLER_52_389 VPWR VGND VPWR VGND sky130_ef_sc_hd__decap_12
XFILLER_52_345 VPWR VGND VPWR VGND sky130_ef_sc_hd__decap_12
XFILLER_52_301 VGND VGND VPWR VPWR sky130_fd_sc_hd__decap_6
XFILLER_44_19 VGND VGND VPWR VPWR sky130_fd_sc_hd__decap_8
XFILLER_12_209 VPWR VGND VPWR VGND sky130_ef_sc_hd__decap_12
XFILLER_60_29 VPWR VGND VPWR VGND sky130_ef_sc_hd__decap_12
XFILLER_20_253 VPWR VGND VPWR VGND sky130_ef_sc_hd__decap_12
XFILLER_62_109 VPWR VGND VPWR VGND sky130_ef_sc_hd__decap_12
XFILLER_55_161 VGND VGND VPWR VPWR sky130_fd_sc_hd__decap_6
XFILLER_18_53 VPWR VGND VPWR VGND sky130_ef_sc_hd__decap_12
XFILLER_18_97 VPWR VGND VPWR VGND sky130_ef_sc_hd__decap_12
XFILLER_34_85 VPWR VGND VPWR VGND sky130_ef_sc_hd__decap_12
XFILLER_34_41 VPWR VGND VPWR VGND sky130_ef_sc_hd__decap_12
XFILLER_7_279 VGND VGND VPWR VPWR sky130_fd_sc_hd__fill_1
XFILLER_59_93 VPWR VGND VPWR VGND sky130_ef_sc_hd__decap_12
XFILLER_38_139 VGND VGND VPWR VPWR sky130_fd_sc_hd__fill_1
XFILLER_34_389 VGND VGND VPWR VPWR sky130_fd_sc_hd__decap_8
XFILLER_34_301 VGND VGND VPWR VPWR sky130_fd_sc_hd__decap_6
XFILLER_44_109 VPWR VGND VPWR VGND sky130_ef_sc_hd__decap_12
XFILLER_29_106 VGND VGND VPWR VPWR sky130_fd_sc_hd__decap_6
XTAP_TAPCELL_ROW_27_329 VGND VPWR sky130_fd_sc_hd__tapvpwrvgnd_1
XFILLER_52_197 VGND VGND VPWR VPWR sky130_fd_sc_hd__decap_8
XFILLER_52_153 VPWR VGND VPWR VGND sky130_ef_sc_hd__decap_12
XTAP_TAPCELL_ROW_35_384 VGND VPWR sky130_fd_sc_hd__tapvpwrvgnd_1
XTAP_TAPCELL_ROW_10_207 VGND VPWR sky130_fd_sc_hd__tapvpwrvgnd_1
XFILLER_4_249 VGND VGND VPWR VPWR sky130_fd_sc_hd__decap_3
XFILLER_20_65 VPWR VGND VPWR VGND sky130_ef_sc_hd__decap_12
XFILLER_35_109 VGND VGND VPWR VPWR sky130_fd_sc_hd__decap_3
XFILLER_28_194 VGND VGND VPWR VPWR sky130_fd_sc_hd__fill_2
XFILLER_16_345 VPWR VGND VPWR VGND sky130_ef_sc_hd__decap_12
XFILLER_16_389 VGND VGND VPWR VPWR sky130_fd_sc_hd__decap_8
XFILLER_31_337 VPWR VGND VPWR VGND sky130_ef_sc_hd__decap_12
XFILLER_3_293 VPWR VGND VPWR VGND sky130_ef_sc_hd__decap_12
XFILLER_13_3 VPWR VGND VPWR VGND sky130_ef_sc_hd__decap_12
XFILLER_34_153 VPWR VGND VPWR VGND sky130_ef_sc_hd__decap_12
XTAP_TAPCELL_ROW_32_365 VGND VPWR sky130_fd_sc_hd__tapvpwrvgnd_1
XFILLER_25_153 VGND VGND VPWR VPWR sky130_fd_sc_hd__fill_1
XFILLER_13_337 VPWR VGND VPWR VGND sky130_ef_sc_hd__decap_12
Xoutput20 net20 VGND VGND VPWR VPWR P[13] sky130_fd_sc_hd__buf_6
Xoutput31 net31 VGND VGND VPWR VPWR P[9] sky130_fd_sc_hd__buf_6
XFILLER_63_237 VPWR VGND VPWR VGND sky130_ef_sc_hd__decap_12
XFILLER_56_83 VGND VGND VPWR VPWR sky130_fd_sc_hd__fill_1
XFILLER_48_289 VPWR VGND VPWR VGND sky130_ef_sc_hd__decap_12
XFILLER_48_245 VGND VGND VPWR VPWR sky130_fd_sc_hd__decap_6
XFILLER_31_167 VGND VGND VPWR VPWR sky130_fd_sc_hd__fill_1
XFILLER_16_153 VGND VGND VPWR VPWR sky130_fd_sc_hd__decap_8
XFILLER_16_175 VPWR VGND VPWR VGND sky130_ef_sc_hd__decap_12
XFILLER_16_197 VPWR VGND VPWR VGND sky130_ef_sc_hd__decap_12
XFILLER_8_363 VGND VGND VPWR VPWR sky130_fd_sc_hd__fill_1
XTAP_TAPCELL_ROW_37_402 VGND VPWR sky130_fd_sc_hd__tapvpwrvgnd_1
XFILLER_22_189 VGND VGND VPWR VPWR sky130_fd_sc_hd__decap_6
X_500_ _090_ _147_ _148_ VGND VGND VPWR VPWR _149_ sky130_fd_sc_hd__a21o_1
XTAP_TAPCELL_ROW_43_438 VGND VPWR sky130_fd_sc_hd__tapvpwrvgnd_1
X_431_ _067_ _080_ VGND VGND VPWR VPWR _082_ sky130_fd_sc_hd__nor2_1
XFILLER_9_105 VGND VGND VPWR VPWR sky130_fd_sc_hd__decap_6
X_362_ _009_ _010_ VGND VGND VPWR VPWR _015_ sky130_fd_sc_hd__xnor2_1
XFILLER_13_156 VGND VGND VPWR VPWR sky130_fd_sc_hd__decap_6
XFILLER_26_53 VPWR VGND VPWR VGND sky130_ef_sc_hd__decap_12
XFILLER_42_85 VPWR VGND VPWR VGND sky130_ef_sc_hd__decap_12
XFILLER_42_41 VPWR VGND VPWR VGND sky130_ef_sc_hd__decap_12
X_293_ net33 net52 net62 net39 VGND VGND VPWR VPWR _227_ sky130_fd_sc_hd__and4_1
XFILLER_3_57 VPWR VGND VPWR VGND sky130_ef_sc_hd__decap_12
XTAP_TAPCELL_ROW_8_193 VGND VPWR sky130_fd_sc_hd__tapvpwrvgnd_1
XFILLER_8_160 VPWR VGND VPWR VGND sky130_ef_sc_hd__decap_12
XFILLER_59_329 VGND VGND VPWR VPWR sky130_fd_sc_hd__decap_6
XFILLER_27_204 VPWR VGND VPWR VGND sky130_ef_sc_hd__decap_12
XFILLER_50_240 VPWR VGND VPWR VGND sky130_ef_sc_hd__decap_12
XFILLER_35_281 VPWR VGND VPWR VGND sky130_ef_sc_hd__decap_12
XFILLER_27_237 VPWR VGND VPWR VGND sky130_ef_sc_hd__decap_12
XPHY_EDGE_ROW_19_Left_84 VGND VGND VPWR VPWR sky130_fd_sc_hd__decap_3
XTAP_TAPCELL_ROW_40_419 VGND VPWR sky130_fd_sc_hd__tapvpwrvgnd_1
XFILLER_12_77 VGND VGND VPWR VPWR sky130_fd_sc_hd__decap_6
XTAP_TAPCELL_ROW_56_530 VGND VPWR sky130_fd_sc_hd__tapvpwrvgnd_1
XFILLER_37_30 VPWR VGND VPWR VGND sky130_ef_sc_hd__decap_12
XTAP_TAPCELL_ROW_5_174 VGND VPWR sky130_fd_sc_hd__tapvpwrvgnd_1
XFILLER_53_51 VGND VGND VPWR VPWR sky130_fd_sc_hd__decap_4
XFILLER_41_273 VGND VGND VPWR VPWR sky130_fd_sc_hd__decap_6
X_414_ _063_ _064_ VGND VGND VPWR VPWR _065_ sky130_fd_sc_hd__xnor2_1
X_345_ net54 net46 VGND VGND VPWR VPWR _277_ sky130_fd_sc_hd__and2_1
XFILLER_45_6 VPWR VGND VPWR VGND sky130_ef_sc_hd__decap_12
XFILLER_5_152 VPWR VGND VPWR VGND sky130_ef_sc_hd__decap_12
XFILLER_49_373 VPWR VGND VPWR VGND sky130_ef_sc_hd__decap_12
XFILLER_1_391 VGND VGND VPWR VPWR sky130_fd_sc_hd__fill_1
XFILLER_64_365 VPWR VGND VPWR VGND sky130_ef_sc_hd__decap_12
XFILLER_64_321 VPWR VGND VPWR VGND sky130_ef_sc_hd__decap_12
XFILLER_17_281 VPWR VGND VPWR VGND sky130_ef_sc_hd__decap_12
XTAP_TAPCELL_ROW_19_276 VGND VPWR sky130_fd_sc_hd__tapvpwrvgnd_1
XTAP_TAPCELL_ROW_62_577 VGND VPWR sky130_fd_sc_hd__tapvpwrvgnd_1
XFILLER_32_251 VGND VGND VPWR VPWR sky130_fd_sc_hd__fill_1
XFILLER_59_137 VPWR VGND VPWR VGND sky130_ef_sc_hd__decap_12
XFILLER_58_29 VPWR VGND VPWR VGND sky130_ef_sc_hd__decap_12
XPHY_EDGE_ROW_12_Right_12 VGND VGND VPWR VPWR sky130_fd_sc_hd__decap_3
XTAP_TAPCELL_ROW_2_155 VGND VPWR sky130_fd_sc_hd__tapvpwrvgnd_1
XPHY_EDGE_ROW_21_Right_21 VGND VGND VPWR VPWR sky130_fd_sc_hd__decap_3
XTAP_TAPCELL_ROW_53_511 VGND VPWR sky130_fd_sc_hd__tapvpwrvgnd_1
XPHY_EDGE_ROW_4_Left_69 VGND VGND VPWR VPWR sky130_fd_sc_hd__decap_3
XPHY_EDGE_ROW_30_Right_30 VGND VGND VPWR VPWR sky130_fd_sc_hd__decap_3
XFILLER_2_177 VPWR VGND VPWR VGND sky130_ef_sc_hd__decap_12
XFILLER_2_133 VGND VGND VPWR VPWR sky130_fd_sc_hd__decap_6
XFILLER_61_335 VGND VGND VPWR VPWR sky130_fd_sc_hd__fill_1
XFILLER_46_365 VPWR VGND VPWR VGND sky130_ef_sc_hd__decap_12
XFILLER_0_69 VPWR VGND VPWR VGND sky130_ef_sc_hd__decap_12
X_328_ _259_ _260_ VGND VGND VPWR VPWR net26 sky130_fd_sc_hd__nor2_1
XFILLER_43_3 VPWR VGND VPWR VGND sky130_ef_sc_hd__decap_12
XFILLER_52_357 VGND VGND VPWR VPWR sky130_fd_sc_hd__decap_6
XFILLER_20_221 VPWR VGND VPWR VGND sky130_ef_sc_hd__decap_12
XFILLER_20_265 VPWR VGND VPWR VGND sky130_ef_sc_hd__decap_12
XFILLER_28_365 VPWR VGND VPWR VGND sky130_ef_sc_hd__decap_12
XFILLER_28_321 VPWR VGND VPWR VGND sky130_ef_sc_hd__decap_12
XFILLER_18_65 VPWR VGND VPWR VGND sky130_ef_sc_hd__decap_12
XFILLER_50_41 VPWR VGND VPWR VGND sky130_ef_sc_hd__decap_12
XFILLER_34_97 VPWR VGND VPWR VGND sky130_ef_sc_hd__decap_12
XFILLER_34_53 VPWR VGND VPWR VGND sky130_ef_sc_hd__decap_12
XFILLER_7_225 VPWR VGND VPWR VGND sky130_ef_sc_hd__decap_12
XFILLER_50_85 VPWR VGND VPWR VGND sky130_ef_sc_hd__decap_12
XFILLER_57_405 VGND VGND VPWR VPWR sky130_fd_sc_hd__fill_2
XFILLER_52_121 VPWR VGND VPWR VGND sky130_ef_sc_hd__decap_12
XFILLER_25_335 VGND VGND VPWR VPWR sky130_fd_sc_hd__fill_1
XFILLER_52_165 VPWR VGND VPWR VGND sky130_ef_sc_hd__decap_12
XTAP_TAPCELL_ROW_35_385 VGND VPWR sky130_fd_sc_hd__tapvpwrvgnd_1
XTAP_TAPCELL_ROW_10_208 VGND VPWR sky130_fd_sc_hd__tapvpwrvgnd_1
XFILLER_20_77 VGND VGND VPWR VPWR sky130_fd_sc_hd__decap_6
XFILLER_45_30 VPWR VGND VPWR VGND sky130_ef_sc_hd__decap_12
XFILLER_31_349 VPWR VGND VPWR VGND sky130_ef_sc_hd__decap_12
XFILLER_16_357 VGND VGND VPWR VPWR sky130_fd_sc_hd__decap_6
XFILLER_61_51 VGND VGND VPWR VPWR sky130_fd_sc_hd__decap_4
XPHY_EDGE_ROW_7_Left_72 VGND VGND VPWR VPWR sky130_fd_sc_hd__decap_3
XFILLER_39_405 VGND VGND VPWR VPWR sky130_fd_sc_hd__fill_2
XFILLER_34_121 VPWR VGND VPWR VGND sky130_ef_sc_hd__decap_12
XFILLER_34_165 VPWR VGND VPWR VGND sky130_ef_sc_hd__decap_12
XTAP_TAPCELL_ROW_32_366 VGND VPWR sky130_fd_sc_hd__tapvpwrvgnd_1
XPHY_EDGE_ROW_6_Right_6 VGND VGND VPWR VPWR sky130_fd_sc_hd__decap_3
XFILLER_57_202 VPWR VGND VPWR VGND sky130_ef_sc_hd__decap_12
XFILLER_57_279 VGND VGND VPWR VPWR sky130_fd_sc_hd__fill_1
XFILLER_13_305 VPWR VGND VPWR VGND sky130_ef_sc_hd__decap_12
XFILLER_13_349 VPWR VGND VPWR VGND sky130_ef_sc_hd__decap_12
XFILLER_15_55 VGND VGND VPWR VPWR sky130_fd_sc_hd__fill_1
XTAP_TAPCELL_ROW_23_300 VGND VPWR sky130_fd_sc_hd__tapvpwrvgnd_1
XFILLER_25_165 VGND VGND VPWR VPWR sky130_fd_sc_hd__decap_3
XFILLER_21_393 VPWR VGND VPWR VGND sky130_ef_sc_hd__decap_12
Xoutput21 net21 VGND VGND VPWR VPWR P[14] sky130_fd_sc_hd__buf_6
XPHY_EDGE_ROW_33_Left_98 VGND VGND VPWR VPWR sky130_fd_sc_hd__decap_3
XFILLER_0_253 VPWR VGND VPWR VGND sky130_ef_sc_hd__decap_12
XFILLER_63_249 VPWR VGND VPWR VGND sky130_ef_sc_hd__decap_12
XFILLER_63_205 VPWR VGND VPWR VGND sky130_ef_sc_hd__decap_12
XPHY_EDGE_ROW_59_Right_59 VGND VGND VPWR VPWR sky130_fd_sc_hd__decap_3
XFILLER_31_135 VPWR VGND VPWR VGND sky130_ef_sc_hd__decap_12
XFILLER_31_113 VPWR VGND VPWR VGND sky130_ef_sc_hd__decap_12
XFILLER_16_187 VGND VGND VPWR VPWR sky130_fd_sc_hd__decap_8
XFILLER_54_238 VPWR VGND VPWR VGND sky130_ef_sc_hd__decap_12
XFILLER_30_190 VGND VGND VPWR VPWR sky130_fd_sc_hd__decap_6
XFILLER_45_205 VPWR VGND VPWR VGND sky130_ef_sc_hd__decap_12
XTAP_TAPCELL_ROW_43_439 VGND VPWR sky130_fd_sc_hd__tapvpwrvgnd_1
XFILLER_42_53 VPWR VGND VPWR VGND sky130_ef_sc_hd__decap_12
X_430_ _067_ _080_ VGND VGND VPWR VPWR _081_ sky130_fd_sc_hd__and2_1
X_361_ net52 net38 _013_ _012_ VGND VGND VPWR VPWR _014_ sky130_fd_sc_hd__a31o_1
X_292_ net52 net39 VGND VGND VPWR VPWR _226_ sky130_fd_sc_hd__nand2_1
XFILLER_26_65 VPWR VGND VPWR VGND sky130_ef_sc_hd__decap_12
XTAP_TAPCELL_ROW_51_494 VGND VPWR sky130_fd_sc_hd__tapvpwrvgnd_1
XFILLER_42_97 VPWR VGND VPWR VGND sky130_ef_sc_hd__decap_12
XFILLER_3_69 VPWR VGND VPWR VGND sky130_ef_sc_hd__decap_12
XTAP_TAPCELL_ROW_8_194 VGND VPWR sky130_fd_sc_hd__tapvpwrvgnd_1
XTAP_TAPCELL_ROW_59_550 VGND VPWR sky130_fd_sc_hd__tapvpwrvgnd_1
XFILLER_36_227 VPWR VGND VPWR VGND sky130_ef_sc_hd__decap_12
X_559_ _184_ _204_ VGND VGND VPWR VPWR _205_ sky130_fd_sc_hd__xnor2_1
XFILLER_8_172 VGND VGND VPWR VPWR sky130_fd_sc_hd__decap_4
XFILLER_12_190 VGND VGND VPWR VPWR sky130_fd_sc_hd__decap_6
XFILLER_8_194 VGND VGND VPWR VPWR sky130_fd_sc_hd__fill_2
XFILLER_27_249 VPWR VGND VPWR VGND sky130_ef_sc_hd__decap_12
XFILLER_27_216 VGND VGND VPWR VPWR sky130_fd_sc_hd__decap_8
XFILLER_35_293 VPWR VGND VPWR VGND sky130_ef_sc_hd__decap_12
XFILLER_6_109 VPWR VGND VPWR VGND sky130_ef_sc_hd__decap_12
XFILLER_58_363 VGND VGND VPWR VPWR sky130_fd_sc_hd__fill_1
XTAP_TAPCELL_ROW_56_531 VGND VPWR sky130_fd_sc_hd__tapvpwrvgnd_1
XFILLER_37_42 VPWR VGND VPWR VGND sky130_ef_sc_hd__decap_12
XFILLER_26_271 VPWR VGND VPWR VGND sky130_ef_sc_hd__decap_12
XTAP_TAPCELL_ROW_5_175 VGND VPWR sky130_fd_sc_hd__tapvpwrvgnd_1
X_413_ _044_ _277_ net43 net44 VGND VGND VPWR VPWR _064_ sky130_fd_sc_hd__and4bb_1
X_344_ _270_ _254_ _272_ _274_ VGND VGND VPWR VPWR _276_ sky130_fd_sc_hd__and4_1
XFILLER_5_164 VGND VGND VPWR VPWR sky130_fd_sc_hd__decap_4
XFILLER_64_333 VGND VGND VPWR VPWR sky130_fd_sc_hd__decap_3
XFILLER_49_385 VGND VGND VPWR VPWR sky130_fd_sc_hd__decap_6
XFILLER_64_377 VPWR VGND VPWR VGND sky130_ef_sc_hd__decap_12
XFILLER_17_293 VPWR VGND VPWR VGND sky130_ef_sc_hd__decap_12
XPHY_EDGE_ROW_20_Left_85 VGND VGND VPWR VPWR sky130_fd_sc_hd__decap_3
XFILLER_59_149 VPWR VGND VPWR VGND sky130_ef_sc_hd__decap_12
XFILLER_59_105 VGND VGND VPWR VPWR sky130_fd_sc_hd__decap_6
XTAP_TAPCELL_ROW_53_512 VGND VPWR sky130_fd_sc_hd__tapvpwrvgnd_1
XTAP_TAPCELL_ROW_2_156 VGND VPWR sky130_fd_sc_hd__tapvpwrvgnd_1
XFILLER_23_55 VGND VGND VPWR VPWR sky130_fd_sc_hd__fill_1
XFILLER_3_3 VPWR VGND VPWR VGND sky130_ef_sc_hd__decap_12
XFILLER_48_85 VPWR VGND VPWR VGND sky130_ef_sc_hd__decap_12
XFILLER_48_41 VPWR VGND VPWR VGND sky130_ef_sc_hd__decap_12
XFILLER_2_189 VGND VGND VPWR VPWR sky130_fd_sc_hd__decap_6
XFILLER_0_15 VPWR VGND VPWR VGND sky130_ef_sc_hd__decap_12
XFILLER_46_377 VPWR VGND VPWR VGND sky130_ef_sc_hd__decap_12
X_327_ net32 net38 _258_ VGND VGND VPWR VPWR _260_ sky130_fd_sc_hd__a21oi_1
XFILLER_9_57 VPWR VGND VPWR VGND sky130_ef_sc_hd__decap_12
XFILLER_36_3 VPWR VGND VPWR VGND sky130_ef_sc_hd__decap_12
XFILLER_64_141 VPWR VGND VPWR VGND sky130_ef_sc_hd__decap_12
XFILLER_37_300 VPWR VGND VPWR VGND sky130_ef_sc_hd__decap_12
XFILLER_20_233 VPWR VGND VPWR VGND sky130_ef_sc_hd__decap_12
XFILLER_20_277 VPWR VGND VPWR VGND sky130_ef_sc_hd__decap_12
XFILLER_28_333 VPWR VGND VPWR VGND sky130_ef_sc_hd__decap_12
XFILLER_28_377 VPWR VGND VPWR VGND sky130_ef_sc_hd__decap_12
XFILLER_18_77 VGND VGND VPWR VPWR sky130_fd_sc_hd__decap_6
XFILLER_51_391 VGND VGND VPWR VPWR sky130_fd_sc_hd__fill_1
XFILLER_50_53 VPWR VGND VPWR VGND sky130_ef_sc_hd__decap_12
XFILLER_34_65 VPWR VGND VPWR VGND sky130_ef_sc_hd__decap_12
XFILLER_7_237 VPWR VGND VPWR VGND sky130_ef_sc_hd__decap_12
XTAP_TAPCELL_ROW_13_228 VGND VPWR sky130_fd_sc_hd__tapvpwrvgnd_1
XFILLER_59_51 VGND VGND VPWR VPWR sky130_fd_sc_hd__decap_4
XFILLER_50_97 VPWR VGND VPWR VGND sky130_ef_sc_hd__decap_12
XFILLER_46_141 VPWR VGND VPWR VGND sky130_ef_sc_hd__decap_12
XFILLER_61_111 VGND VGND VPWR VPWR sky130_fd_sc_hd__fill_1
XFILLER_29_119 VGND VGND VPWR VPWR sky130_fd_sc_hd__fill_1
XFILLER_52_177 VGND VGND VPWR VPWR sky130_fd_sc_hd__decap_3
XFILLER_52_133 VGND VGND VPWR VPWR sky130_fd_sc_hd__decap_6
XTAP_TAPCELL_ROW_35_386 VGND VPWR sky130_fd_sc_hd__tapvpwrvgnd_1
XFILLER_33_391 VGND VGND VPWR VPWR sky130_fd_sc_hd__fill_1
XTAP_TAPCELL_ROW_10_209 VGND VPWR sky130_fd_sc_hd__tapvpwrvgnd_1
XPHY_EDGE_ROW_42_Left_107 VGND VGND VPWR VPWR sky130_fd_sc_hd__decap_3
XFILLER_4_229 VGND VGND VPWR VPWR sky130_fd_sc_hd__fill_1
XFILLER_28_174 VPWR VGND VPWR VGND sky130_ef_sc_hd__decap_12
XFILLER_28_141 VPWR VGND VPWR VGND sky130_ef_sc_hd__decap_12
XFILLER_28_130 VGND VGND VPWR VPWR sky130_fd_sc_hd__fill_1
XPHY_EDGE_ROW_51_Left_116 VGND VGND VPWR VPWR sky130_fd_sc_hd__decap_3
XFILLER_45_42 VPWR VGND VPWR VGND sky130_ef_sc_hd__decap_12
XFILLER_43_155 VPWR VGND VPWR VGND sky130_ef_sc_hd__decap_12
XFILLER_43_111 VGND VGND VPWR VPWR sky130_fd_sc_hd__fill_1
XTAP_TAPCELL_ROW_26_320 VGND VPWR sky130_fd_sc_hd__tapvpwrvgnd_1
XPHY_EDGE_ROW_60_Left_125 VGND VGND VPWR VPWR sky130_fd_sc_hd__decap_3
XFILLER_34_133 VGND VGND VPWR VPWR sky130_fd_sc_hd__decap_6
Xrebuffer19 _021_ VGND VGND VPWR VPWR net75 sky130_fd_sc_hd__dlygate4sd1_1
XFILLER_34_177 VPWR VGND VPWR VGND sky130_ef_sc_hd__decap_12
XTAP_TAPCELL_ROW_32_367 VGND VPWR sky130_fd_sc_hd__tapvpwrvgnd_1
XFILLER_15_391 VGND VGND VPWR VPWR sky130_fd_sc_hd__fill_1
XFILLER_57_225 VPWR VGND VPWR VGND sky130_ef_sc_hd__decap_12
XFILLER_57_214 VGND VGND VPWR VPWR sky130_fd_sc_hd__decap_8
XFILLER_13_317 VPWR VGND VPWR VGND sky130_ef_sc_hd__decap_12
XTAP_TAPCELL_ROW_23_301 VGND VPWR sky130_fd_sc_hd__tapvpwrvgnd_1
XFILLER_25_100 VPWR VGND VPWR VGND sky130_ef_sc_hd__decap_12
XFILLER_31_55 VGND VGND VPWR VPWR sky130_fd_sc_hd__fill_1
XFILLER_21_361 VPWR VGND VPWR VGND sky130_ef_sc_hd__decap_12
Xoutput22 net22 VGND VGND VPWR VPWR P[15] sky130_fd_sc_hd__buf_6
XFILLER_0_221 VGND VGND VPWR VPWR sky130_fd_sc_hd__decap_3
XFILLER_0_265 VPWR VGND VPWR VGND sky130_ef_sc_hd__decap_12
XFILLER_0_287 VGND VGND VPWR VPWR sky130_fd_sc_hd__decap_3
XFILLER_63_217 VGND VGND VPWR VPWR sky130_fd_sc_hd__decap_6
XFILLER_56_85 VPWR VGND VPWR VGND sky130_ef_sc_hd__decap_12
XFILLER_56_41 VPWR VGND VPWR VGND sky130_ef_sc_hd__decap_12
XTAP_TAPCELL_ROW_46_459 VGND VPWR sky130_fd_sc_hd__tapvpwrvgnd_1
XFILLER_31_169 VPWR VGND VPWR VGND sky130_ef_sc_hd__decap_12
XFILLER_31_147 VPWR VGND VPWR VGND sky130_ef_sc_hd__decap_12
XFILLER_31_125 VGND VGND VPWR VPWR sky130_fd_sc_hd__decap_3
XFILLER_8_321 VPWR VGND VPWR VGND sky130_ef_sc_hd__decap_12