*SPEF "ieee 1481-1999"
*DESIGN "SarsanStepsNada_e8"
*DATE "11:51:30 Friday September 12, 2025"
*VENDOR "The OpenROAD Project"
*PROGRAM "OpenROAD"
*VERSION "edf00dff99f6c40d67a30c0e22a8191c5d2ed9d6"
*DESIGN_FLOW "NAME_SCOPE LOCAL" "PIN_CAP NONE"
*DIVIDER /
*DELIMITER :
*BUS_DELIMITER []
*T_UNIT 1 NS
*C_UNIT 1 PF
*R_UNIT 1 OHM
*L_UNIT 1 HENRY

*NAME_MAP
*1 A[0]
*2 A[1]
*3 B[0]
*4 B[1]
*5 P[0]
*6 P[1]
*7 P[2]
*8 P[3]
*11 _0_
*12 _1_
*13 _2_
*14 net1
*15 net2
*16 net3
*17 net4
*18 net5
*19 net6
*20 net7
*21 net8
*22 FILLER_0_15
*23 FILLER_0_27
*24 FILLER_0_29
*25 FILLER_0_3
*26 FILLER_0_41
*27 FILLER_0_53
*28 FILLER_0_57
*29 FILLER_0_69
*30 FILLER_1_15
*31 FILLER_1_27
*32 FILLER_1_3
*33 FILLER_1_39
*34 FILLER_1_51
*35 FILLER_1_55
*36 FILLER_1_57
*37 FILLER_1_69
*38 FILLER_2_15
*39 FILLER_2_27
*40 FILLER_2_29
*41 FILLER_2_3
*42 FILLER_2_41
*43 FILLER_2_53
*44 FILLER_2_65
*45 FILLER_2_77
*46 FILLER_3_15
*47 FILLER_3_27
*48 FILLER_3_3
*49 FILLER_3_39
*50 FILLER_3_51
*51 FILLER_3_55
*52 FILLER_3_60
*53 FILLER_3_72
*54 FILLER_3_80
*55 FILLER_4_10
*56 FILLER_4_19
*57 FILLER_4_27
*58 FILLER_4_29
*59 FILLER_4_37
*60 FILLER_4_45
*61 FILLER_4_6
*62 FILLER_4_64
*63 FILLER_4_76
*64 FILLER_5_19
*65 FILLER_5_31
*66 FILLER_5_43
*67 FILLER_5_55
*68 FILLER_5_57
*69 FILLER_5_7
*70 FILLER_5_72
*71 FILLER_6_19
*72 FILLER_6_27
*73 FILLER_6_29
*74 FILLER_6_41
*75 FILLER_6_53
*76 FILLER_6_65
*77 FILLER_6_7
*78 FILLER_7_15
*79 FILLER_7_27
*80 FILLER_7_3
*81 FILLER_7_39
*82 FILLER_7_51
*83 FILLER_7_55
*84 FILLER_7_57
*85 FILLER_7_69
*86 FILLER_7_77
*87 FILLER_8_15
*88 FILLER_8_27
*89 FILLER_8_29
*90 FILLER_8_3
*91 FILLER_8_41
*92 FILLER_8_53
*93 FILLER_8_65
*94 FILLER_8_77
*95 FILLER_9_15
*96 FILLER_9_27
*97 FILLER_9_29
*98 FILLER_9_3
*99 FILLER_9_41
*100 FILLER_9_53
*101 FILLER_9_57
*102 FILLER_9_69
*103 PHY_EDGE_ROW_0_Left_10
*104 PHY_EDGE_ROW_0_Right_0
*105 PHY_EDGE_ROW_1_Left_11
*106 PHY_EDGE_ROW_1_Right_1
*107 PHY_EDGE_ROW_2_Left_12
*108 PHY_EDGE_ROW_2_Right_2
*109 PHY_EDGE_ROW_3_Left_13
*110 PHY_EDGE_ROW_3_Right_3
*111 PHY_EDGE_ROW_4_Left_14
*112 PHY_EDGE_ROW_4_Right_4
*113 PHY_EDGE_ROW_5_Left_15
*114 PHY_EDGE_ROW_5_Right_5
*115 PHY_EDGE_ROW_6_Left_16
*116 PHY_EDGE_ROW_6_Right_6
*117 PHY_EDGE_ROW_7_Left_17
*118 PHY_EDGE_ROW_7_Right_7
*119 PHY_EDGE_ROW_8_Left_18
*120 PHY_EDGE_ROW_8_Right_8
*121 PHY_EDGE_ROW_9_Left_19
*122 PHY_EDGE_ROW_9_Right_9
*123 TAP_TAPCELL_ROW_0_20
*124 TAP_TAPCELL_ROW_0_21
*125 TAP_TAPCELL_ROW_1_22
*126 TAP_TAPCELL_ROW_2_23
*127 TAP_TAPCELL_ROW_3_24
*128 TAP_TAPCELL_ROW_4_25
*129 TAP_TAPCELL_ROW_5_26
*130 TAP_TAPCELL_ROW_6_27
*131 TAP_TAPCELL_ROW_7_28
*132 TAP_TAPCELL_ROW_8_29
*133 TAP_TAPCELL_ROW_9_30
*134 TAP_TAPCELL_ROW_9_31
*135 _3_
*136 _4_
*137 _5_
*138 _6_
*139 _7_
*140 _8_
*141 _9_
*142 input1
*143 input2
*144 input3
*145 input4
*146 output5
*147 output6
*148 output7
*149 output8

*PORTS
A[0] I
A[1] I
B[0] I
B[1] I
P[0] O
P[1] O
P[2] O
P[3] O

*D_NET *1 0.00041916
*CONN
*P A[0] I
*I *142:A I *D sky130_fd_sc_hd__buf_1
*CAP
1 A[0] 0.000166713
2 *142:A 0.000166713
3 *142:A P[2] 8.57347e-05
*RES
1 A[0] *142:A 18.1229 
*END

*D_NET *2 0.00060944
*CONN
*P A[1] I
*I *143:A I *D sky130_fd_sc_hd__buf_1
*CAP
1 A[1] 0.000220272
2 *143:A 0.000220272
3 *143:A P[2] 8.57347e-05
4 *143:A P[3] 8.31618e-05
*RES
1 A[1] *143:A 19.6407 
*END

*D_NET *3 0.000465235
*CONN
*P B[0] I
*I *144:A I *D sky130_fd_sc_hd__buf_1
*CAP
1 B[0] 0.000194309
2 *144:A 0.000194309
3 *144:A P[3] 7.66163e-05
*RES
1 B[0] *144:A 18.4264 
*END

*D_NET *4 0.000688268
*CONN
*P B[1] I
*I *145:A I *D sky130_fd_sc_hd__buf_1
*CAP
1 B[1] 0.000329138
2 *145:A 0.000329138
3 *145:A P[1] 2.99915e-05
*RES
1 B[1] *145:A 21.6946 
*END

*D_NET *5 0.00050699
*CONN
*P P[0] O
*I *146:X O *D sky130_fd_sc_hd__buf_2
*CAP
1 P[0] 0.000239111
2 *146:X 0.000239111
3 P[0] P[1] 2.87684e-05
*RES
1 *146:X P[0] 18.1949 
*END

*D_NET *6 0.000725588
*CONN
*P P[1] O
*I *147:X O *D sky130_fd_sc_hd__buf_2
*CAP
1 P[1] 0.000333414
2 *147:X 0.000333414
3 P[0] P[1] 2.87684e-05
4 *145:A P[1] 2.99915e-05
*RES
1 *147:X P[1] 20.891 
*END

*D_NET *7 0.000632891
*CONN
*P P[2] O
*I *148:X O *D sky130_fd_sc_hd__buf_2
*CAP
1 P[2] 0.000230711
2 *148:X 0.000230711
3 P[2] P[3] 0
4 *142:A P[2] 8.57347e-05
5 *143:A P[2] 8.57347e-05
*RES
1 *148:X P[2] 19.4092 
*END

*D_NET *8 0.000505688
*CONN
*P P[3] O
*I *149:X O *D sky130_fd_sc_hd__buf_2
*CAP
1 P[3] 0.000166857
2 *149:X 0.000166857
3 P[3] *149:A 1.21955e-05
4 P[2] P[3] 0
5 *143:A P[3] 8.31618e-05
6 *144:A P[3] 7.66163e-05
*RES
1 *149:X P[3] 18.1949 
*END

*D_NET *11 0.00169829
*CONN
*I *138:A2 I *D sky130_fd_sc_hd__o21a_1
*I *140:A2 I *D sky130_fd_sc_hd__o211a_1
*I *136:Y O *D sky130_fd_sc_hd__inv_2
*CAP
1 *138:A2 0.000110591
2 *140:A2 0
3 *136:Y 0.000153557
4 *11:12 0.000264148
5 *138:A2 *138:A1 0.000463125
6 *138:A2 *138:B1 0.000185168
7 *138:A2 *140:C1 3.13852e-06
8 *138:A2 *141:B 5.41494e-05
9 *138:A2 *15:28 0.00014285
10 *138:A2 *16:25 0.000172309
11 *138:A2 *17:19 1.74352e-05
12 *11:12 *137:D 5.62995e-05
13 *11:12 *141:D 4.25716e-05
14 *11:12 *15:18 1.02504e-05
15 *11:12 *15:28 2.26973e-05
*RES
1 *136:Y *11:12 20.8893 
2 *11:12 *140:A2 9.3 
3 *11:12 *138:A2 15.1929 
*END

*D_NET *12 0.00142477
*CONN
*I *139:A2 I *D sky130_fd_sc_hd__o21ba_1
*I *138:X O *D sky130_fd_sc_hd__o21a_1
*CAP
1 *139:A2 0.000198573
2 *138:X 0.000198573
3 *139:A2 *139:A1 6.75704e-05
4 *139:A2 *139:B1_N 1.3701e-05
5 *139:A2 *17:8 2.44318e-05
6 *139:A2 *17:12 0.000357156
7 *139:A2 *18:6 0.000564764
*RES
1 *138:X *139:A2 28.6 
*END

*D_NET *13 0.00038627
*CONN
*I *140:A1 I *D sky130_fd_sc_hd__o211a_1
*I *135:Y O *D sky130_fd_sc_hd__inv_2
*CAP
1 *140:A1 4.57477e-05
2 *135:Y 4.57477e-05
3 *140:A1 *141:B 6.87574e-05
4 *140:A1 *148:A 0.00010096
5 *140:A1 *16:25 0.000125057
*RES
1 *135:Y *140:A1 20.7786 
*END

*D_NET *14 0.00400616
*CONN
*I *141:D I *D sky130_fd_sc_hd__and4_1
*I *136:A I *D sky130_fd_sc_hd__inv_2
*I *137:D I *D sky130_fd_sc_hd__and4_1
*I *142:X O *D sky130_fd_sc_hd__buf_1
*CAP
1 *141:D 0.000614348
2 *136:A 0
3 *137:D 0.000383042
4 *142:X 0.000795437
5 *14:12 0.000383042
6 *14:10 0.00140978
7 *141:D *141:B 0
8 *141:D *15:8 5.71472e-05
9 *141:D *15:18 0.000264489
10 *141:D *16:10 0
11 *141:D *16:16 0
12 *11:12 *137:D 5.62995e-05
13 *11:12 *141:D 4.25716e-05
*RES
1 *142:X *14:10 23.675 
2 *14:10 *14:12 4.5 
3 *14:12 *137:D 24.8893 
4 *14:12 *136:A 9.3 
5 *14:10 *141:D 23.6214 
*END

*D_NET *15 0.00329188
*CONN
*I *141:C I *D sky130_fd_sc_hd__and4_1
*I *140:B1 I *D sky130_fd_sc_hd__o211a_1
*I *137:C I *D sky130_fd_sc_hd__and4_1
*I *138:B1 I *D sky130_fd_sc_hd__o21a_1
*I *143:X O *D sky130_fd_sc_hd__buf_1
*CAP
1 *141:C 0
2 *140:B1 0
3 *137:C 0
4 *138:B1 9.46089e-05
5 *143:X 0.000192297
6 *15:28 0.000267813
7 *15:18 0.000629523
8 *15:8 0.000648617
9 *138:B1 *138:A1 0.000110198
10 *138:B1 *140:C1 0
11 *138:B1 *17:12 0.000297893
12 *138:B1 *18:6 1.13883e-05
13 *15:8 *149:A 0.000276211
14 *15:28 *17:12 2.44318e-05
15 *15:28 *17:19 5.62995e-05
16 *138:A2 *138:B1 0.000185168
17 *138:A2 *15:28 0.00014285
18 *141:D *15:8 5.71472e-05
19 *141:D *15:18 0.000264489
20 *11:12 *15:18 1.02504e-05
21 *11:12 *15:28 2.26973e-05
*RES
1 *143:X *15:8 13.9607 
2 *15:8 *15:18 13.375 
3 *15:18 *15:28 7.76786 
4 *15:28 *138:B1 13.6929 
5 *15:28 *137:C 9.3 
6 *15:18 *140:B1 13.8 
7 *15:8 *141:C 9.3 
*END

*D_NET *16 0.00396481
*CONN
*I *141:A I *D sky130_fd_sc_hd__and4_1
*I *137:A I *D sky130_fd_sc_hd__and4_1
*I *138:A1 I *D sky130_fd_sc_hd__o21a_1
*I *135:A I *D sky130_fd_sc_hd__inv_2
*I *144:X O *D sky130_fd_sc_hd__buf_1
*CAP
1 *141:A 0
2 *137:A 0
3 *138:A1 0.000179802
4 *135:A 0
5 *144:X 0.000689179
6 *16:25 0.000448728
7 *16:16 0.000463465
8 *16:10 0.000883718
9 *138:A1 *18:6 0.000187042
10 *16:16 *141:B 0.000121606
11 *16:16 *148:A 0.00010096
12 *16:25 *141:B 7.49387e-06
13 *16:25 *148:A 1.21289e-05
14 *138:A2 *138:A1 0.000463125
15 *138:A2 *16:25 0.000172309
16 *138:B1 *138:A1 0.000110198
17 *140:A1 *16:25 0.000125057
18 *141:D *16:10 0
19 *141:D *16:16 0
*RES
1 *144:X *16:10 23.0321 
2 *16:10 *16:16 8.60714 
3 *16:16 *135:A 9.3 
4 *16:16 *16:25 5.375 
5 *16:25 *138:A1 15.2107 
6 *16:25 *137:A 9.3 
7 *16:10 *141:A 13.8 
*END

*D_NET *17 0.00549483
*CONN
*I *139:A1 I *D sky130_fd_sc_hd__o21ba_1
*I *141:B I *D sky130_fd_sc_hd__and4_1
*I *140:C1 I *D sky130_fd_sc_hd__o211a_1
*I *137:B I *D sky130_fd_sc_hd__and4_1
*I *145:X O *D sky130_fd_sc_hd__buf_1
*CAP
1 *139:A1 2.31332e-05
2 *141:B 0.000562544
3 *140:C1 3.97796e-05
4 *137:B 0
5 *145:X 0.000316817
6 *17:19 0.000687501
7 *17:12 0.00107238
8 *17:8 0.00132715
9 *141:B *148:A 0.000318101
10 *17:8 *18:6 3.97657e-05
11 *17:12 *18:6 7.29187e-06
12 *138:A2 *140:C1 3.13852e-06
13 *138:A2 *141:B 5.41494e-05
14 *138:A2 *17:19 1.74352e-05
15 *138:B1 *140:C1 0
16 *138:B1 *17:12 0.000297893
17 *139:A2 *139:A1 6.75704e-05
18 *139:A2 *17:8 2.44318e-05
19 *139:A2 *17:12 0.000357156
20 *140:A1 *141:B 6.87574e-05
21 *141:D *141:B 0
22 *15:28 *17:12 2.44318e-05
23 *15:28 *17:19 5.62995e-05
24 *16:16 *141:B 0.000121606
25 *16:25 *141:B 7.49387e-06
*RES
1 *145:X *17:8 14.7821 
2 *17:8 *17:12 14.1071 
3 *17:12 *137:B 9.3 
4 *17:12 *17:19 1.35714 
5 *17:19 *140:C1 10.0321 
6 *17:19 *141:B 27.6393 
7 *17:8 *139:A1 10.2643 
*END

*D_NET *18 0.0036876
*CONN
*I *146:A I *D sky130_fd_sc_hd__buf_2
*I *139:B1_N I *D sky130_fd_sc_hd__o21ba_1
*I *137:X O *D sky130_fd_sc_hd__and4_1
*CAP
1 *146:A 0.000395836
2 *139:B1_N 4.8015e-05
3 *137:X 0.000947174
4 *18:6 0.00139102
5 *146:A *147:A 8.15939e-05
6 *138:A1 *18:6 0.000187042
7 *138:B1 *18:6 1.13883e-05
8 *139:A2 *139:B1_N 1.3701e-05
9 *139:A2 *18:6 0.000564764
10 *17:8 *18:6 3.97657e-05
11 *17:12 *18:6 7.29187e-06
*RES
1 *137:X *18:6 22.9786 
2 *18:6 *139:B1_N 10.3357 
3 *18:6 *146:A 25.3714 
*END

*D_NET *19 0.000518285
*CONN
*I *147:A I *D sky130_fd_sc_hd__buf_2
*I *139:X O *D sky130_fd_sc_hd__o21ba_1
*CAP
1 *147:A 0.000218346
2 *139:X 0.000218346
3 *146:A *147:A 8.15939e-05
*RES
1 *139:X *147:A 31.725 
*END

*D_NET *20 0.00123104
*CONN
*I *148:A I *D sky130_fd_sc_hd__buf_2
*I *140:X O *D sky130_fd_sc_hd__o211a_1
*CAP
1 *148:A 0.000349443
2 *140:X 0.000349443
3 *140:A1 *148:A 0.00010096
4 *141:B *148:A 0.000318101
5 *16:16 *148:A 0.00010096
6 *16:25 *148:A 1.21289e-05
*RES
1 *140:X *148:A 26.1357 
*END

*D_NET *21 0.000824657
*CONN
*I *149:A I *D sky130_fd_sc_hd__buf_2
*I *141:X O *D sky130_fd_sc_hd__and4_1
*CAP
1 *149:A 0.000268125
2 *141:X 0.000268125
3 P[3] *149:A 1.21955e-05
4 *15:8 *149:A 0.000276211
*RES
1 *141:X *149:A 31.8321 
*END
