*SPEF "ieee 1481-1999"
*DESIGN "mult4_SarsaNada_e8_SARSA_RUIDO_e9_SARSA_RUIDO_e9_SARSA_RUIDO_e9"
*DATE "14:38:43 Tuesday September 16, 2025"
*VENDOR "The OpenROAD Project"
*PROGRAM "OpenROAD"
*VERSION "edf00dff99f6c40d67a30c0e22a8191c5d2ed9d6"
*DESIGN_FLOW "NAME_SCOPE LOCAL" "PIN_CAP NONE"
*DIVIDER /
*DELIMITER :
*BUS_DELIMITER []
*T_UNIT 1 NS
*C_UNIT 1 PF
*R_UNIT 1 OHM
*L_UNIT 1 HENRY

*NAME_MAP
*1 A[0]
*2 A[1]
*3 A[2]
*4 A[3]
*5 B[0]
*6 B[1]
*7 B[2]
*8 B[3]
*9 net16
*10 P[1]
*11 P[2]
*12 P[3]
*13 P[4]
*14 P[5]
*15 P[6]
*16 P[7]
*19 _00_
*20 _01_
*21 _02_
*22 _03_
*23 _04_
*24 _05_
*25 _06_
*26 _07_
*27 _08_
*28 _09_
*29 _10_
*30 _11_
*31 _12_
*32 _13_
*33 _14_
*34 _15_
*35 _16_
*36 _17_
*37 _18_
*38 _19_
*39 _20_
*40 _21_
*41 _22_
*42 _23_
*43 _24_
*44 net1
*45 net10
*46 net11
*47 net12
*48 net13
*49 net14
*50 net15
*51 net2
*52 net3
*53 net4
*54 net5
*55 net6
*56 net7
*57 net8
*58 net9
*59 FILLER_0_13
*60 FILLER_0_25
*61 FILLER_0_29
*62 FILLER_0_34
*63 FILLER_0_42
*64 FILLER_0_54
*65 FILLER_0_57
*66 FILLER_0_69
*67 FILLER_1_15
*68 FILLER_1_23
*69 FILLER_1_37
*70 FILLER_1_49
*71 FILLER_1_55
*72 FILLER_1_57
*73 FILLER_1_69
*74 FILLER_1_7
*75 FILLER_1_77
*76 FILLER_2_22
*77 FILLER_2_29
*78 FILLER_2_51
*79 FILLER_2_56
*80 FILLER_2_68
*81 FILLER_2_7
*82 FILLER_2_76
*83 FILLER_3_11
*84 FILLER_3_16
*85 FILLER_3_28
*86 FILLER_3_3
*87 FILLER_3_34
*88 FILLER_3_46
*89 FILLER_3_54
*90 FILLER_3_57
*91 FILLER_3_69
*92 FILLER_4_19
*93 FILLER_4_27
*94 FILLER_4_29
*95 FILLER_4_40
*96 FILLER_4_52
*97 FILLER_4_64
*98 FILLER_4_7
*99 FILLER_4_76
*100 FILLER_4_80
*101 FILLER_5_17
*102 FILLER_5_29
*103 FILLER_5_41
*104 FILLER_5_53
*105 FILLER_5_6
*106 FILLER_5_61
*107 FILLER_5_73
*108 FILLER_6_24
*109 FILLER_6_29
*110 FILLER_6_35
*111 FILLER_6_41
*112 FILLER_6_49
*113 FILLER_6_59
*114 FILLER_6_71
*115 FILLER_7_13
*116 FILLER_7_32
*117 FILLER_7_40
*118 FILLER_7_55
*119 FILLER_7_62
*120 FILLER_7_7
*121 FILLER_7_70
*122 FILLER_7_76
*123 FILLER_8_15
*124 FILLER_8_3
*125 FILLER_8_36
*126 FILLER_8_51
*127 FILLER_8_63
*128 FILLER_8_75
*129 FILLER_9_18
*130 FILLER_9_29
*131 FILLER_9_35
*132 FILLER_9_47
*133 FILLER_9_55
*134 FILLER_9_57
*135 FILLER_9_6
*136 FILLER_9_69
*137 PHY_EDGE_ROW_0_Left_10
*138 PHY_EDGE_ROW_0_Right_0
*139 PHY_EDGE_ROW_1_Left_11
*140 PHY_EDGE_ROW_1_Right_1
*141 PHY_EDGE_ROW_2_Left_12
*142 PHY_EDGE_ROW_2_Right_2
*143 PHY_EDGE_ROW_3_Left_13
*144 PHY_EDGE_ROW_3_Right_3
*145 PHY_EDGE_ROW_4_Left_14
*146 PHY_EDGE_ROW_4_Right_4
*147 PHY_EDGE_ROW_5_Left_15
*148 PHY_EDGE_ROW_5_Right_5
*149 PHY_EDGE_ROW_6_Left_16
*150 PHY_EDGE_ROW_6_Right_6
*151 PHY_EDGE_ROW_7_Left_17
*152 PHY_EDGE_ROW_7_Right_7
*153 PHY_EDGE_ROW_8_Left_18
*154 PHY_EDGE_ROW_8_Right_8
*155 PHY_EDGE_ROW_9_Left_19
*156 PHY_EDGE_ROW_9_Right_9
*157 TAP_TAPCELL_ROW_0_20
*158 TAP_TAPCELL_ROW_0_21
*159 TAP_TAPCELL_ROW_1_22
*160 TAP_TAPCELL_ROW_2_23
*161 TAP_TAPCELL_ROW_3_24
*162 TAP_TAPCELL_ROW_4_25
*163 TAP_TAPCELL_ROW_5_26
*164 TAP_TAPCELL_ROW_6_27
*165 TAP_TAPCELL_ROW_7_28
*166 TAP_TAPCELL_ROW_8_29
*167 TAP_TAPCELL_ROW_9_30
*168 TAP_TAPCELL_ROW_9_31
*169 _25_
*170 _26_
*171 _27_
*172 _28_
*173 _29_
*174 _30_
*175 _31_
*176 _32_
*177 _33_
*178 _34_
*179 _35_
*180 _36_
*181 _37_
*182 _38_
*183 _39_
*184 _40_
*185 _41_
*186 _42_
*187 _43_
*188 _44_
*189 _45_
*190 _46_
*191 _47_
*192 _48_
*193 _49_
*194 _50_
*195 _51_
*196 _52_
*197 _53_
*198 _54_
*199 _55_
*200 _57_
*201 input1
*202 input2
*203 input3
*204 input4
*205 input5
*206 input6
*207 input7
*208 input8
*209 mult4_SarsaNada_e8_SARSA_RUIDO_e9_SARSA_RUIDO_e9_SARSA_RUIDO_e9_16
*210 output10
*211 output11
*212 output12
*213 output13
*214 output14
*215 output15
*216 output9

*PORTS
A[0] I
A[1] I
A[2] I
A[3] I
B[0] I
B[1] I
B[2] I
B[3] I
P[0] O
P[1] O
P[2] O
P[3] O
P[4] O
P[5] O
P[6] O
P[7] O

*D_NET *1 0.000596511
*CONN
*P A[0] I
*I *201:A I *D sky130_fd_sc_hd__dlymetal6s2s_1
*CAP
1 A[0] 0.000284756
2 *201:A 0.000284756
3 *201:A *203:A 2.69997e-05
*RES
1 A[0] *201:A 7.3443 
*END

*D_NET *2 0.000502822
*CONN
*P A[1] I
*I *202:A I *D sky130_fd_sc_hd__clkbuf_1
*CAP
1 A[1] 0.000222832
2 *202:A 0.000222832
3 *202:A *179:B2 0
4 *202:A *204:A 0
5 *202:A *207:A 2.85068e-05
6 *202:A *208:A 2.24901e-05
7 *202:A *56:53 6.16226e-06
*RES
1 A[1] *202:A 5.35677 
*END

*D_NET *3 0.000619547
*CONN
*P A[2] I
*I *203:A I *D sky130_fd_sc_hd__clkbuf_2
*CAP
1 A[2] 0.000282774
2 *203:A 0.000282774
3 *203:A P[1] 2.69997e-05
4 *201:A *203:A 2.69997e-05
*RES
1 A[2] *203:A 7.4343 
*END

*D_NET *4 0.00064468
*CONN
*P A[3] I
*I *204:A I *D sky130_fd_sc_hd__buf_1
*CAP
1 A[3] 0.000280481
2 *204:A 0.000280481
3 *204:A *208:A 3.14094e-05
4 *204:A *53:12 5.23093e-05
5 *202:A *204:A 0
*RES
1 A[3] *204:A 6.63177 
*END

*D_NET *5 0.000880836
*CONN
*P B[0] I
*I *205:A I *D sky130_fd_sc_hd__clkbuf_1
*CAP
1 B[0] 0.000431226
2 *205:A 0.000431226
3 *205:A P[2] 0
4 *205:A *169:A 1.83847e-05
*RES
1 B[0] *205:A 11.04 
*END

*D_NET *6 0.000679924
*CONN
*P B[1] I
*I *206:A I *D sky130_fd_sc_hd__clkbuf_2
*CAP
1 B[1] 0.000310325
2 *206:A 0.000310325
3 *206:A P[1] 2.96366e-05
4 *206:A *207:A 2.96366e-05
5 *206:A *56:14 0
*RES
1 B[1] *206:A 7.9443 
*END

*D_NET *7 0.000623243
*CONN
*P B[2] I
*I *207:A I *D sky130_fd_sc_hd__buf_1
*CAP
1 B[2] 0.00028255
2 *207:A 0.00028255
3 *207:A *56:14 0
4 *202:A *207:A 2.85068e-05
5 *206:A *207:A 2.96366e-05
*RES
1 B[2] *207:A 7.5993 
*END

*D_NET *8 0.000592769
*CONN
*P B[3] I
*I *208:A I *D sky130_fd_sc_hd__clkbuf_2
*CAP
1 B[3] 0.000269435
2 *208:A 0.000269435
3 *202:A *208:A 2.24901e-05
4 *204:A *208:A 3.14094e-05
*RES
1 B[3] *208:A 7.1793 
*END

*D_NET *9 0.000423734
*CONN
*P P[0] O
*I *209:LO O *D sky130_fd_sc_hd__conb_1
*CAP
1 P[0] 0.000173345
2 *209:LO 0.000173345
3 P[0] P[3] 7.70436e-05
*RES
1 *209:LO P[0] 4.84677 
*END

*D_NET *10 0.000600341
*CONN
*P P[1] O
*I *216:X O *D sky130_fd_sc_hd__buf_2
*CAP
1 P[1] 0.000271852
2 *216:X 0.000271852
3 *203:A P[1] 2.69997e-05
4 *206:A P[1] 2.96366e-05
*RES
1 *216:X P[1] 7.1793 
*END

*D_NET *11 0.000877347
*CONN
*P P[2] O
*I *210:X O *D sky130_fd_sc_hd__buf_2
*CAP
1 P[2] 0.000438674
2 *210:X 0.000438674
3 *205:A P[2] 0
*RES
1 *210:X P[2] 10.53 
*END

*D_NET *12 0.000494082
*CONN
*P P[3] O
*I *211:X O *D sky130_fd_sc_hd__buf_2
*CAP
1 P[3] 0.000208519
2 *211:X 0.000208519
3 P[0] P[3] 7.70436e-05
*RES
1 *211:X P[3] 5.16003 
*END

*D_NET *13 0.000472054
*CONN
*P P[4] O
*I *212:X O *D sky130_fd_sc_hd__buf_2
*CAP
1 P[4] 0.000187852
2 *212:X 0.000187852
3 P[4] P[5] 8.4638e-05
4 P[4] *212:A 1.17114e-05
*RES
1 *212:X P[4] 4.90503 
*END

*D_NET *14 0.000460569
*CONN
*P P[5] O
*I *213:X O *D sky130_fd_sc_hd__buf_2
*CAP
1 P[5] 0.000187966
2 *213:X 0.000187966
3 P[4] P[5] 8.4638e-05
*RES
1 *213:X P[5] 4.90503 
*END

*D_NET *15 0.000945064
*CONN
*P P[6] O
*I *214:X O *D sky130_fd_sc_hd__buf_2
*CAP
1 P[6] 0.000472532
2 *214:X 0.000472532
3 P[6] P[7] 0
*RES
1 *214:X P[6] 11.655 
*END

*D_NET *16 0.000894056
*CONN
*P P[7] O
*I *215:X O *D sky130_fd_sc_hd__buf_2
*CAP
1 P[7] 0.000447028
2 *215:X 0.000447028
3 P[6] P[7] 0
*RES
1 *215:X P[7] 11.55 
*END

*D_NET *19 0.00106927
*CONN
*I *173:B1 I *D sky130_fd_sc_hd__a21oi_1
*I *174:A I *D sky130_fd_sc_hd__and3_1
*I *169:X O *D sky130_fd_sc_hd__and2_1
*CAP
1 *173:B1 0.00023163
2 *174:A 0.000139139
3 *169:X 0
4 *19:4 0.000370768
5 *173:B1 *173:A1 0.000227261
6 *173:B1 *175:A 4.6368e-06
7 *173:B1 *52:47 7.57282e-06
8 *174:A *173:A1 8.8266e-05
9 *174:A *173:A2 0
10 *174:A *52:12 0
*RES
1 *169:X *19:4 1.6 
2 *19:4 *174:A 7.52 
3 *19:4 *173:B1 4.825 
*END

*D_NET *20 0.0019293
*CONN
*I *198:B1 I *D sky130_fd_sc_hd__a211oi_1
*I *185:A1 I *D sky130_fd_sc_hd__o211a_1
*I *170:X O *D sky130_fd_sc_hd__and4_1
*CAP
1 *198:B1 5.59763e-05
2 *185:A1 0
3 *170:X 0.000285629
4 *20:8 0.000341605
5 *198:B1 *198:A2 0.000161467
6 *198:B1 *198:C1 8.09999e-05
7 *198:B1 *199:A 4.82919e-05
8 *198:B1 *32:18 2.26739e-05
9 *198:B1 *34:8 0.000121019
10 *20:8 *174:B 9.91257e-05
11 *20:8 *184:B1 2.23589e-05
12 *20:8 *198:A2 8.33607e-05
13 *20:8 *198:C1 4.77757e-05
14 *20:8 *24:14 4.03507e-05
15 *20:8 *33:8 2.86975e-05
16 *20:8 *44:58 0.000353831
17 *20:8 *44:69 4.82863e-05
18 *20:8 *52:66 8.7846e-05
*RES
1 *170:X *20:8 8.965 
2 *20:8 *185:A1 1.6 
3 *20:8 *198:B1 4.12 
*END

*D_NET *21 0.00244607
*CONN
*I *174:B I *D sky130_fd_sc_hd__and3_1
*I *173:A1 I *D sky130_fd_sc_hd__a21oi_1
*I *171:Y O *D sky130_fd_sc_hd__nand4_1
*CAP
1 *174:B 0.000386278
2 *173:A1 0.000258239
3 *171:Y 0
4 *21:4 0.000644518
5 *173:A1 *171:A 1.16578e-05
6 *173:A1 *173:A2 8.65961e-05
7 *173:A1 *52:6 6.6564e-05
8 *173:A1 *52:39 0.000169748
9 *173:A1 *52:47 2.26018e-05
10 *174:B *171:A 3.47837e-05
11 *174:B *200:A 2.92496e-05
12 *174:B *44:36 4.66108e-05
13 *174:B *44:51 0.000160641
14 *174:B *44:58 2.7441e-05
15 *174:B *52:12 5.25753e-05
16 *174:B *55:38 3.39151e-05
17 *173:B1 *173:A1 0.000227261
18 *174:A *173:A1 8.8266e-05
19 *20:8 *174:B 9.91257e-05
*RES
1 *171:Y *21:4 1.6 
2 *21:4 *173:A1 8.65 
3 *21:4 *174:B 11.645 
*END

*D_NET *22 0.00159365
*CONN
*I *173:A2 I *D sky130_fd_sc_hd__a21oi_1
*I *174:C I *D sky130_fd_sc_hd__and3_1
*I *172:X O *D sky130_fd_sc_hd__a22o_1
*CAP
1 *173:A2 0.000198326
2 *174:C 0
3 *172:X 0.000297843
4 *22:14 0.000496169
5 *173:A2 *184:B1 8.53113e-06
6 *173:A2 *24:14 4.82863e-05
7 *173:A2 *44:58 0.000105615
8 *173:A2 *52:47 3.31103e-05
9 *22:14 *170:A 4.82919e-05
10 *22:14 *170:B 4.35348e-05
11 *22:14 *170:C 2.02895e-05
12 *22:14 *44:51 1.12578e-05
13 *22:14 *44:58 0.000195802
14 *173:A1 *173:A2 8.65961e-05
15 *174:A *173:A2 0
*RES
1 *172:X *22:14 6.49 
2 *22:14 *174:C 1.6 
3 *22:14 *173:A2 9.575 
*END

*D_NET *23 0.000154316
*CONN
*I *175:A I *D sky130_fd_sc_hd__nor2_1
*I *173:Y O *D sky130_fd_sc_hd__a21oi_1
*CAP
1 *175:A 6.1519e-05
2 *173:Y 6.1519e-05
3 *175:A *169:B 0
4 *175:A *52:47 2.6641e-05
5 *173:B1 *175:A 4.6368e-06
*RES
1 *173:Y *175:A 4.37 
*END

*D_NET *24 0.0021855
*CONN
*I *198:C1 I *D sky130_fd_sc_hd__a211oi_1
*I *185:A2 I *D sky130_fd_sc_hd__o211a_1
*I *175:B I *D sky130_fd_sc_hd__nor2_1
*I *174:X O *D sky130_fd_sc_hd__and3_1
*CAP
1 *198:C1 0.000236302
2 *185:A2 0
3 *175:B 0
4 *174:X 0.00029722
5 *24:25 0.000422263
6 *24:14 0.000483181
7 *198:C1 *199:A 1.61831e-05
8 *198:C1 *32:10 4.38051e-05
9 *198:C1 *34:8 0.000121019
10 *24:14 *184:B1 0.000126054
11 *24:14 *210:A 4.36422e-06
12 *24:14 *44:58 1.46828e-05
13 *24:14 *52:47 0.00011432
14 *24:25 *210:A 2.75441e-05
15 *24:25 *32:10 9.50342e-06
16 *24:25 *32:18 5.16418e-05
17 *173:A2 *24:14 4.82863e-05
18 *198:B1 *198:C1 8.09999e-05
19 *20:8 *198:C1 4.77757e-05
20 *20:8 *24:14 4.03507e-05
*RES
1 *174:X *24:14 10.295 
2 *24:14 *175:B 1.6 
3 *24:14 *24:25 5.375 
4 *24:25 *185:A2 3.6 
5 *24:25 *198:C1 7.785 
*END

*D_NET *25 0.000384605
*CONN
*I *181:A I *D sky130_fd_sc_hd__xor2_1
*I *176:Y O *D sky130_fd_sc_hd__nand2_1
*CAP
1 *181:A 0.000169192
2 *176:Y 0.000169192
3 *181:A *180:A2 0
4 *181:A *189:A 1.61831e-05
5 *181:A *38:14 0
6 *181:A *52:25 3.00381e-05
*RES
1 *176:Y *181:A 9.63 
*END

*D_NET *26 0.000356289
*CONN
*I *197:A I *D sky130_fd_sc_hd__xnor2_1
*I *177:Y O *D sky130_fd_sc_hd__nand2_1
*CAP
1 *197:A 0.000113116
2 *177:Y 0.000113116
3 *197:A *197:B 1.44259e-05
4 *197:A *214:A 3.64998e-06
5 *197:A *42:10 2.66935e-05
6 *197:A *57:47 8.52883e-05
*RES
1 *177:Y *197:A 9.375 
*END

*D_NET *27 0.000947799
*CONN
*I *180:A2 I *D sky130_fd_sc_hd__a21bo_1
*I *190:B1 I *D sky130_fd_sc_hd__a32o_1
*I *178:X O *D sky130_fd_sc_hd__and3_1
*CAP
1 *180:A2 0.000203629
2 *190:B1 4.91614e-06
3 *178:X 0.000126886
4 *27:12 0.000335431
5 *180:A2 *177:B 3.00381e-05
6 *180:A2 *180:B1_N 4.40812e-05
7 *180:A2 *38:14 0
8 *180:A2 *53:42 7.35813e-05
9 *180:A2 *57:10 0
10 *180:A2 *57:34 0
11 *190:B1 *190:A3 2.09749e-05
12 *190:B1 *56:53 1.35171e-05
13 *27:12 *178:C 0
14 *27:12 *52:12 9.47454e-05
15 *27:12 *57:10 0
16 *181:A *180:A2 0
*RES
1 *178:X *27:12 5.535 
2 *27:12 *190:B1 3.8025 
3 *27:12 *180:A2 7.485 
*END

*D_NET *28 0.000882562
*CONN
*I *180:B1_N I *D sky130_fd_sc_hd__a21bo_1
*I *190:A3 I *D sky130_fd_sc_hd__a32o_1
*I *179:X O *D sky130_fd_sc_hd__a22o_1
*CAP
1 *180:B1_N 9.2733e-05
2 *190:A3 0.000155446
3 *179:X 0
4 *28:4 0.000248179
5 *180:B1_N *53:42 8.65961e-05
6 *180:B1_N *57:10 3.86529e-05
7 *180:B1_N *57:34 2.7881e-05
8 *190:A3 *176:A 1.19928e-05
9 *190:A3 *190:B2 5.94962e-05
10 *190:A3 *52:25 6.02119e-05
11 *190:A3 *56:53 3.63178e-05
12 *180:A2 *180:B1_N 4.40812e-05
13 *190:B1 *190:A3 2.09749e-05
*RES
1 *179:X *28:4 1.6 
2 *28:4 *190:A3 4.75 
3 *28:4 *180:B1_N 7.775 
*END

*D_NET *29 0.000149146
*CONN
*I *181:B I *D sky130_fd_sc_hd__xor2_1
*I *180:X O *D sky130_fd_sc_hd__a21bo_1
*CAP
1 *181:B 3.04398e-05
2 *180:X 3.04398e-05
3 *181:B *177:B 8.8266e-05
*RES
1 *180:X *181:B 3.995 
*END

*D_NET *30 0.00260767
*CONN
*I *195:A1 I *D sky130_fd_sc_hd__a221o_1
*I *187:A I *D sky130_fd_sc_hd__nor2_1
*I *186:B1 I *D sky130_fd_sc_hd__o21a_1
*I *181:X O *D sky130_fd_sc_hd__xor2_1
*CAP
1 *195:A1 0
2 *187:A 5.65926e-05
3 *186:B1 0
4 *181:X 0.000261078
5 *30:18 0.000246554
6 *30:8 0.000451039
7 *187:A *187:B 6.52265e-05
8 *30:8 *177:A 0.000160826
9 *30:8 *177:B 5.37974e-05
10 *30:8 *195:A2 1.2818e-05
11 *30:8 *37:12 0.000103293
12 *30:8 *38:14 4.20169e-05
13 *30:8 *42:10 0.000311332
14 *30:8 *57:60 0.000121643
15 *30:18 *186:A1 0.0002001
16 *30:18 *187:B 7.66083e-05
17 *30:18 *195:A2 0.000176646
18 *30:18 *195:B1 8.88971e-05
19 *30:18 *34:23 1.5996e-05
20 *30:18 *34:27 0.000163204
*RES
1 *181:X *30:8 8.185 
2 *30:8 *30:18 9.625 
3 *30:18 *186:B1 1.6 
4 *30:18 *187:A 2.74 
5 *30:8 *195:A1 1.6 
*END

*D_NET *31 0.00170796
*CONN
*I *186:A1 I *D sky130_fd_sc_hd__o21a_1
*I *195:A2 I *D sky130_fd_sc_hd__a221o_1
*I *182:X O *D sky130_fd_sc_hd__and4_1
*CAP
1 *186:A1 0.000103654
2 *195:A2 0.000114583
3 *182:X 0.000276267
4 *31:12 0.000494505
5 *195:A2 *34:23 6.95473e-06
6 *195:A2 *37:12 1.2818e-05
7 *195:A2 *57:60 0
8 *31:12 *188:A1 0
9 *31:12 *34:23 0
10 *31:12 *57:60 9.50342e-06
11 *31:12 *57:66 0.000300109
12 *30:8 *195:A2 1.2818e-05
13 *30:18 *186:A1 0.0002001
14 *30:18 *195:A2 0.000176646
*RES
1 *182:X *31:12 10.85 
2 *31:12 *195:A2 8.12375 
3 *31:12 *186:A1 3.775 
*END

*D_NET *32 0.003608
*CONN
*I *185:B1 I *D sky130_fd_sc_hd__o211a_1
*I *198:A1 I *D sky130_fd_sc_hd__a211oi_1
*I *188:A1 I *D sky130_fd_sc_hd__a21oi_1
*I *183:Y O *D sky130_fd_sc_hd__nand4_1
*CAP
1 *185:B1 0
2 *198:A1 0
3 *188:A1 0.000658874
4 *183:Y 0.000303388
5 *32:18 0.000897404
6 *32:10 0.000541918
7 *188:A1 *188:B1 0.000122337
8 *188:A1 *199:A 5.16348e-05
9 *188:A1 *34:23 0.00058121
10 *188:A1 *57:66 0
11 *32:10 *182:C 9.10564e-05
12 *32:10 *52:66 0
13 *32:18 *198:A2 0.000232551
14 *198:B1 *32:18 2.26739e-05
15 *198:C1 *32:10 4.38051e-05
16 *24:25 *32:10 9.50342e-06
17 *24:25 *32:18 5.16418e-05
18 *31:12 *188:A1 0
*RES
1 *183:Y *32:10 7.755 
2 *32:10 *32:18 5.495 
3 *32:18 *188:A1 17.09 
4 *32:18 *198:A1 1.6 
5 *32:10 *185:B1 3.6 
*END

*D_NET *33 0.000788079
*CONN
*I *198:A2 I *D sky130_fd_sc_hd__a211oi_1
*I *185:C1 I *D sky130_fd_sc_hd__o211a_1
*I *184:X O *D sky130_fd_sc_hd__a22o_1
*CAP
1 *198:A2 8.02095e-05
2 *185:C1 1.8388e-05
3 *184:X 4.24037e-05
4 *33:8 0.000141001
5 *198:B1 *198:A2 0.000161467
6 *20:8 *198:A2 8.33607e-05
7 *20:8 *33:8 2.86975e-05
8 *32:18 *198:A2 0.000232551
*RES
1 *184:X *33:8 2.41 
2 *33:8 *185:C1 1.96 
3 *33:8 *198:A2 4.465 
*END

*D_NET *34 0.00361235
*CONN
*I *195:B1 I *D sky130_fd_sc_hd__a221o_1
*I *187:B I *D sky130_fd_sc_hd__nor2_1
*I *186:A2 I *D sky130_fd_sc_hd__o21a_1
*I *199:A I *D sky130_fd_sc_hd__nor2_1
*I *185:X O *D sky130_fd_sc_hd__o211a_1
*CAP
1 *195:B1 0.000137962
2 *187:B 0.000186932
3 *186:A2 0
4 *199:A 0.000209943
5 *185:X 2.60786e-05
6 *34:27 0.000263082
7 *34:23 0.000597576
8 *34:8 0.000619485
9 *195:B1 *188:B1 0
10 *195:B1 *191:A 3.09164e-05
11 *195:B1 *194:A 0
12 *195:B1 *37:12 2.75145e-05
13 *199:A *199:B 0.00012657
14 *199:A *211:A 3.00381e-05
15 *34:23 *188:A2 0
16 *34:23 *188:B1 0
17 *187:A *187:B 6.52265e-05
18 *188:A1 *199:A 5.16348e-05
19 *188:A1 *34:23 0.00058121
20 *195:A2 *34:23 6.95473e-06
21 *198:B1 *199:A 4.82919e-05
22 *198:B1 *34:8 0.000121019
23 *198:C1 *199:A 1.61831e-05
24 *198:C1 *34:8 0.000121019
25 *30:18 *187:B 7.66083e-05
26 *30:18 *195:B1 8.88971e-05
27 *30:18 *34:23 1.5996e-05
28 *30:18 *34:27 0.000163204
29 *31:12 *34:23 0
*RES
1 *185:X *34:8 4.74 
2 *34:8 *199:A 7.44 
3 *34:8 *34:23 8.52 
4 *34:23 *34:27 3.485 
5 *34:27 *186:A2 1.6 
6 *34:27 *187:B 4.735 
7 *34:23 *195:B1 6.195 
*END

*D_NET *35 0.00149396
*CONN
*I *194:A I *D sky130_fd_sc_hd__xnor2_1
*I *188:B1 I *D sky130_fd_sc_hd__a21oi_1
*I *186:X O *D sky130_fd_sc_hd__o21a_1
*CAP
1 *194:A 0.000302137
2 *188:B1 0.000247818
3 *186:X 0
4 *35:6 0.000549955
5 *188:B1 *188:A2 4.94404e-05
6 *188:B1 *212:A 4.9253e-06
7 *194:A *191:B 4.18603e-06
8 *194:A *193:B 8.65961e-05
9 *194:A *194:B 0.00012657
10 *188:A1 *188:B1 0.000122337
11 *195:B1 *188:B1 0
12 *195:B1 *194:A 0
13 *34:23 *188:B1 0
*RES
1 *186:X *35:6 3.6 
2 *35:6 *188:B1 7.83 
3 *35:6 *194:A 8.79 
*END

*D_NET *36 0.000200288
*CONN
*I *188:A2 I *D sky130_fd_sc_hd__a21oi_1
*I *187:Y O *D sky130_fd_sc_hd__nor2_1
*CAP
1 *188:A2 7.54235e-05
2 *187:Y 7.54235e-05
3 *188:B1 *188:A2 4.94404e-05
4 *34:23 *188:A2 0
*RES
1 *187:Y *188:A2 8.58 
*END

*D_NET *37 0.00116106
*CONN
*I *192:A I *D sky130_fd_sc_hd__and2_1
*I *191:A I *D sky130_fd_sc_hd__nor2_1
*I *195:B2 I *D sky130_fd_sc_hd__a221o_1
*I *189:X O *D sky130_fd_sc_hd__and2_1
*CAP
1 *192:A 1.86995e-05
2 *191:A 0.000124114
3 *195:B2 4.66357e-06
4 *189:X 0.000164996
5 *37:14 0.000147347
6 *37:12 0.000202265
7 *191:A *191:B 0
8 *192:A *195:C1 3.00381e-05
9 *192:A *38:14 4.60584e-05
10 *37:12 *38:14 0.000174055
11 *37:12 *57:60 6.47516e-05
12 *37:14 *195:C1 9.53428e-06
13 *37:14 *38:14 0
14 *195:A2 *37:12 1.2818e-05
15 *195:B1 *191:A 3.09164e-05
16 *195:B1 *37:12 2.75145e-05
17 *30:8 *37:12 0.000103293
*RES
1 *189:X *37:12 9.845 
2 *37:12 *37:14 0.36 
3 *37:14 *195:B2 1.70875 
4 *37:14 *191:A 7.49 
5 *37:12 *192:A 2.395 
*END

*D_NET *38 0.00304124
*CONN
*I *192:B I *D sky130_fd_sc_hd__and2_1
*I *191:B I *D sky130_fd_sc_hd__nor2_1
*I *190:X O *D sky130_fd_sc_hd__a32o_1
*CAP
1 *192:B 0
2 *191:B 0.000158797
3 *190:X 0.000958835
4 *38:14 0.00111763
5 *191:B *193:A 5.05437e-05
6 *38:14 *177:A 6.44067e-05
7 *38:14 *177:B 0.000352161
8 *38:14 *195:C1 3.0664e-05
9 *38:14 *57:60 4.18837e-05
10 *180:A2 *38:14 0
11 *181:A *38:14 0
12 *191:A *191:B 0
13 *192:A *38:14 4.60584e-05
14 *194:A *191:B 4.18603e-06
15 *30:8 *38:14 4.20169e-05
16 *37:12 *38:14 0.000174055
17 *37:14 *38:14 0
*RES
1 *190:X *38:14 18.485 
2 *38:14 *191:B 8.285 
3 *38:14 *192:B 1.6 
*END

*D_NET *39 0.000835467
*CONN
*I *193:A I *D sky130_fd_sc_hd__or2_1
*I *191:Y O *D sky130_fd_sc_hd__nor2_1
*CAP
1 *193:A 0.000392462
2 *191:Y 0.000392462
3 *191:B *193:A 5.05437e-05
*RES
1 *191:Y *193:A 11.88 
*END

*D_NET *40 0.000544574
*CONN
*I *193:B I *D sky130_fd_sc_hd__or2_1
*I *195:C1 I *D sky130_fd_sc_hd__a221o_1
*I *192:X O *D sky130_fd_sc_hd__and2_1
*CAP
1 *193:B 6.38118e-05
2 *195:C1 0.000130059
3 *192:X 0
4 *40:4 0.000193871
5 *192:A *195:C1 3.00381e-05
6 *194:A *193:B 8.65961e-05
7 *37:14 *195:C1 9.53428e-06
8 *38:14 *195:C1 3.0664e-05
*RES
1 *192:X *40:4 1.6 
2 *40:4 *195:C1 3.79 
3 *40:4 *193:B 2.74 
*END

*D_NET *41 0.000219966
*CONN
*I *194:B I *D sky130_fd_sc_hd__xnor2_1
*I *193:X O *D sky130_fd_sc_hd__or2_1
*CAP
1 *194:B 4.66979e-05
2 *193:X 4.66979e-05
3 *194:A *194:B 0.00012657
*RES
1 *193:X *194:B 4.34 
*END

*D_NET *42 0.00182938
*CONN
*I *197:B I *D sky130_fd_sc_hd__xnor2_1
*I *196:C I *D sky130_fd_sc_hd__and3_1
*I *195:X O *D sky130_fd_sc_hd__a221o_1
*CAP
1 *197:B 4.08304e-05
2 *196:C 0.000232487
3 *195:X 0.000237863
4 *42:10 0.000511179
5 *196:C *57:34 9.49276e-05
6 *196:C *57:47 0.000262308
7 *197:B *57:47 2.84864e-05
8 *42:10 *57:47 6.88421e-05
9 *197:A *197:B 1.44259e-05
10 *197:A *42:10 2.66935e-05
11 *30:8 *42:10 0.000311332
*RES
1 *195:X *42:10 7.335 
2 *42:10 *196:C 6.87 
3 *42:10 *197:B 4.47 
*END

*D_NET *43 0.000213869
*CONN
*I *199:B I *D sky130_fd_sc_hd__nor2_1
*I *198:Y O *D sky130_fd_sc_hd__a211oi_1
*CAP
1 *199:B 4.36495e-05
2 *198:Y 4.36495e-05
3 *199:A *199:B 0.00012657
*RES
1 *198:Y *199:B 4.34 
*END

*D_NET *44 0.00441026
*CONN
*I *182:B I *D sky130_fd_sc_hd__and4_1
*I *183:B I *D sky130_fd_sc_hd__nand4_1
*I *184:B2 I *D sky130_fd_sc_hd__a22o_1
*I *170:D I *D sky130_fd_sc_hd__and4_1
*I *200:A I *D sky130_fd_sc_hd__clkbuf_1
*I *172:B2 I *D sky130_fd_sc_hd__a22o_1
*I *171:D I *D sky130_fd_sc_hd__nand4_1
*I *201:X O *D sky130_fd_sc_hd__dlymetal6s2s_1
*CAP
1 *182:B 0.000145864
2 *183:B 0
3 *184:B2 0
4 *170:D 0
5 *200:A 8.26334e-05
6 *172:B2 0
7 *171:D 0
8 *201:X 0.000227933
9 *44:69 0.000232708
10 *44:58 0.000157801
11 *44:51 0.000125702
12 *44:36 0.000281499
13 *44:23 0.000254464
14 *44:10 0.000338276
15 *182:B *182:A 3.86529e-05
16 *182:B *57:72 0.000125029
17 *200:A *52:12 8.97486e-05
18 *200:A *55:38 0
19 *44:10 *171:A 3.25831e-05
20 *44:10 *52:12 0
21 *44:23 *171:A 2.92838e-05
22 *44:23 *171:B 0.000117832
23 *44:23 *171:C 0.00011686
24 *44:23 *56:16 3.09233e-05
25 *44:36 *170:C 0.00027042
26 *44:36 *171:B 9.50342e-06
27 *44:36 *51:14 4.21314e-05
28 *44:36 *56:14 3.09233e-05
29 *44:36 *56:16 2.14129e-05
30 *44:51 *170:C 0.000145038
31 *44:58 *184:B1 4.82919e-05
32 *44:69 *182:A 2.42236e-05
33 *44:69 *184:A1 0.000159549
34 *44:69 *184:B1 7.40887e-05
35 *44:69 *52:66 0.000139245
36 *44:69 *57:72 2.42236e-05
37 *173:A2 *44:58 0.000105615
38 *174:B *200:A 2.92496e-05
39 *174:B *44:36 4.66108e-05
40 *174:B *44:51 0.000160641
41 *174:B *44:58 2.7441e-05
42 *20:8 *44:58 0.000353831
43 *20:8 *44:69 4.82863e-05
44 *22:14 *44:51 1.12578e-05
45 *22:14 *44:58 0.000195802
46 *24:14 *44:58 1.46828e-05
*RES
1 *201:X *44:10 7.23 
2 *44:10 *171:D 3.6 
3 *44:10 *44:23 2.79 
4 *44:23 *172:B2 3.6 
5 *44:23 *44:36 5.135 
6 *44:36 *200:A 7.49 
7 *44:36 *44:51 2.1 
8 *44:51 *170:D 1.6 
9 *44:51 *44:58 3.9 
10 *44:58 *184:B2 1.6 
11 *44:58 *44:69 5.36 
12 *44:69 *183:B 3.6 
13 *44:69 *182:B 5.955 
*END

*D_NET *45 0.000377881
*CONN
*I *210:A I *D sky130_fd_sc_hd__buf_2
*I *175:Y O *D sky130_fd_sc_hd__nor2_1
*CAP
1 *210:A 0.000172986
2 *175:Y 0.000172986
3 *24:14 *210:A 4.36422e-06
4 *24:25 *210:A 2.75441e-05
*RES
1 *175:Y *210:A 9.63 
*END

*D_NET *46 0.00111795
*CONN
*I *211:A I *D sky130_fd_sc_hd__buf_2
*I *199:Y O *D sky130_fd_sc_hd__nor2_1
*CAP
1 *211:A 0.000543958
2 *199:Y 0.000543958
3 *199:A *211:A 3.00381e-05
*RES
1 *199:Y *211:A 11.6 
*END

*D_NET *47 0.00115804
*CONN
*I *212:A I *D sky130_fd_sc_hd__buf_2
*I *188:Y O *D sky130_fd_sc_hd__a21oi_1
*CAP
1 *212:A 0.000570704
2 *188:Y 0.000570704
3 P[4] *212:A 1.17114e-05
4 *188:B1 *212:A 4.9253e-06
*RES
1 *188:Y *212:A 15.57 
*END

*D_NET *48 0.00045123
*CONN
*I *213:A I *D sky130_fd_sc_hd__buf_2
*I *194:Y O *D sky130_fd_sc_hd__xnor2_1
*CAP
1 *213:A 0.000225615
2 *194:Y 0.000225615
*RES
1 *194:Y *213:A 6.68 
*END

*D_NET *49 0.000299209
*CONN
*I *214:A I *D sky130_fd_sc_hd__buf_2
*I *197:Y O *D sky130_fd_sc_hd__xnor2_1
*CAP
1 *214:A 0.000141914
2 *197:Y 0.000141914
3 *214:A *215:A 0
4 *214:A *57:47 1.17309e-05
5 *197:A *214:A 3.64998e-06
*RES
1 *197:Y *214:A 9.285 
*END

*D_NET *50 0.000309565
*CONN
*I *215:A I *D sky130_fd_sc_hd__buf_2
*I *196:X O *D sky130_fd_sc_hd__and3_1
*CAP
1 *215:A 0.000154783
2 *196:X 0.000154783
3 *214:A *215:A 0
*RES
1 *196:X *215:A 9.54 
*END

*D_NET *51 0.0031974
*CONN
*I *179:A1 I *D sky130_fd_sc_hd__a22o_1
*I *178:B I *D sky130_fd_sc_hd__and3_1
*I *170:B I *D sky130_fd_sc_hd__and4_1
*I *172:A2 I *D sky130_fd_sc_hd__a22o_1
*I *171:B I *D sky130_fd_sc_hd__nand4_1
*I *202:X O *D sky130_fd_sc_hd__clkbuf_1
*CAP
1 *179:A1 0
2 *178:B 0.000147624
3 *170:B 3.55301e-05
4 *172:A2 0
5 *171:B 0.000128318
6 *202:X 8.07973e-05
7 *51:29 6.68498e-05
8 *51:14 0.000344078
9 *51:12 0.000423731
10 *51:8 0.000172465
11 *170:B *170:A 0.000112349
12 *170:B *170:C 0.000198939
13 *171:B *171:A 6.49564e-05
14 *171:B *171:C 8.65905e-05
15 *171:B *55:38 1.07797e-05
16 *178:B *178:A 4.10576e-05
17 *178:B *178:C 1.0124e-05
18 *51:8 *179:B2 4.82863e-05
19 *51:8 *190:B2 2.75145e-05
20 *51:8 *56:53 0.000120655
21 *51:12 *178:C 9.30717e-05
22 *51:12 *179:B2 6.10014e-05
23 *51:12 *52:12 0
24 *51:12 *55:10 5.18691e-05
25 *51:14 *52:12 0
26 *51:14 *55:10 5.21046e-05
27 *51:14 *55:36 0.000100308
28 *51:14 *55:38 0.000124752
29 *51:14 *56:14 0.000161729
30 *51:29 *170:A 4.82919e-05
31 *51:29 *170:C 0.000122337
32 *51:29 *172:B1 4.82919e-05
33 *22:14 *170:B 4.35348e-05
34 *44:23 *171:B 0.000117832
35 *44:36 *171:B 9.50342e-06
36 *44:36 *51:14 4.21314e-05
*RES
1 *202:X *51:8 3.445 
2 *51:8 *51:12 4.4 
3 *51:12 *51:14 5.715 
4 *51:14 *171:B 6.12 
5 *51:14 *51:29 3.14 
6 *51:29 *172:A2 1.6 
7 *51:29 *170:B 3.43 
8 *51:12 *178:B 5.43 
9 *51:8 *179:A1 1.6 
*END

*D_NET *52 0.00647535
*CONN
*I *169:B I *D sky130_fd_sc_hd__and2_1
*I *183:C I *D sky130_fd_sc_hd__nand4_1
*I *182:C I *D sky130_fd_sc_hd__and4_1
*I *184:A2 I *D sky130_fd_sc_hd__a22o_1
*I *189:A I *D sky130_fd_sc_hd__and2_1
*I *176:B I *D sky130_fd_sc_hd__nand2_1
*I *190:A2 I *D sky130_fd_sc_hd__a32o_1
*I *203:X O *D sky130_fd_sc_hd__clkbuf_2
*CAP
1 *169:B 3.55506e-05
2 *183:C 0
3 *182:C 0.00021657
4 *184:A2 0
5 *189:A 0.000295958
6 *176:B 0
7 *190:A2 0
8 *203:X 0.000218015
9 *52:66 0.000431341
10 *52:47 0.000616544
11 *52:39 0.000620962
12 *52:25 0.000415084
13 *52:12 0.000770903
14 *52:6 0.00105343
15 *182:C *182:A 3.87166e-05
16 *182:C *184:A1 8.80293e-06
17 *182:C *55:71 9.17267e-05
18 *182:C *55:80 7.76846e-07
19 *52:6 *171:A 0.00012657
20 *52:6 *171:C 6.05513e-05
21 *52:12 *171:A 0
22 *52:12 *55:36 0
23 *52:12 *55:38 0
24 *52:25 *176:A 0.000142945
25 *52:25 *190:A1 4.00541e-06
26 *52:47 *169:A 0
27 *52:47 *184:A1 9.09788e-06
28 *52:66 *184:A1 6.28251e-05
29 *52:66 *184:B1 0.000143266
30 *52:66 *57:72 9.50342e-06
31 *173:A1 *52:6 6.6564e-05
32 *173:A1 *52:39 0.000169748
33 *173:A1 *52:47 2.26018e-05
34 *173:A2 *52:47 3.31103e-05
35 *173:B1 *52:47 7.57282e-06
36 *174:A *52:12 0
37 *174:B *52:12 5.25753e-05
38 *175:A *169:B 0
39 *175:A *52:47 2.6641e-05
40 *181:A *189:A 1.61831e-05
41 *181:A *52:25 3.00381e-05
42 *190:A3 *52:25 6.02119e-05
43 *200:A *52:12 8.97486e-05
44 *20:8 *52:66 8.7846e-05
45 *24:14 *52:47 0.00011432
46 *27:12 *52:12 9.47454e-05
47 *32:10 *182:C 9.10564e-05
48 *32:10 *52:66 0
49 *44:10 *52:12 0
50 *44:69 *52:66 0.000139245
51 *51:12 *52:12 0
52 *51:14 *52:12 0
*RES
1 *203:X *52:6 5.5 
2 *52:6 *52:12 14.305 
3 *52:12 *190:A2 1.6 
4 *52:12 *52:25 3.255 
5 *52:25 *176:B 1.6 
6 *52:25 *189:A 6.19 
7 *52:6 *52:39 3.555 
8 *52:39 *52:47 7.535 
9 *52:47 *184:A2 3.6 
10 *52:47 *52:66 9.99 
11 *52:66 *182:C 9.77 
12 *52:66 *183:C 1.6 
13 *52:39 *169:B 2.215 
*END

*D_NET *53 0.00399957
*CONN
*I *196:B I *D sky130_fd_sc_hd__and3_1
*I *177:B I *D sky130_fd_sc_hd__nand2_1
*I *180:A1 I *D sky130_fd_sc_hd__a21bo_1
*I *190:B2 I *D sky130_fd_sc_hd__a32o_1
*I *179:B1 I *D sky130_fd_sc_hd__a22o_1
*I *204:X O *D sky130_fd_sc_hd__buf_1
*CAP
1 *196:B 0.000415886
2 *177:B 0.000162023
3 *180:A1 2.08101e-05
4 *190:B2 0.00010573
5 *179:B1 0
6 *204:X 0.000139766
7 *53:42 0.000390841
8 *53:20 0.000213462
9 *53:16 0.000451283
10 *53:12 0.000691196
11 *190:B2 *56:53 7.48695e-05
12 *196:B *57:34 0.000223545
13 *53:16 *57:34 0.000105849
14 *53:20 *178:C 5.53249e-06
15 *53:20 *179:B2 8.53113e-06
16 *53:20 *57:10 7.07801e-05
17 *53:20 *57:34 1.07797e-05
18 *53:42 *57:8 8.49205e-05
19 *180:A2 *177:B 3.00381e-05
20 *180:A2 *53:42 7.35813e-05
21 *180:B1_N *53:42 8.65961e-05
22 *181:B *177:B 8.8266e-05
23 *190:A3 *190:B2 5.94962e-05
24 *204:A *53:12 5.23093e-05
25 *30:8 *177:B 5.37974e-05
26 *38:14 *177:B 0.000352161
27 *51:8 *190:B2 2.75145e-05
*RES
1 *204:X *53:12 7.865 
2 *53:12 *53:16 4.91 
3 *53:16 *53:20 3.89 
4 *53:20 *179:B1 1.6 
5 *53:20 *190:B2 4.255 
6 *53:16 *53:42 5.555 
7 *53:42 *180:A1 1.96 
8 *53:42 *177:B 6.115 
9 *53:12 *196:B 8.035 
*END

*D_NET *54 0.000381891
*CONN
*I *169:A I *D sky130_fd_sc_hd__and2_1
*I *205:X O *D sky130_fd_sc_hd__clkbuf_1
*CAP
1 *169:A 0.000181753
2 *205:X 0.000181753
3 *205:A *169:A 1.83847e-05
4 *52:47 *169:A 0
*RES
1 *205:X *169:A 9.375 
*END

*D_NET *55 0.00506381
*CONN
*I *182:A I *D sky130_fd_sc_hd__and4_1
*I *184:A1 I *D sky130_fd_sc_hd__a22o_1
*I *183:A I *D sky130_fd_sc_hd__nand4_1
*I *170:A I *D sky130_fd_sc_hd__and4_1
*I *172:A1 I *D sky130_fd_sc_hd__a22o_1
*I *171:A I *D sky130_fd_sc_hd__nand4_1
*I *179:B2 I *D sky130_fd_sc_hd__a22o_1
*I *178:A I *D sky130_fd_sc_hd__and3_1
*I *206:X O *D sky130_fd_sc_hd__clkbuf_2
*CAP
1 *182:A 7.80603e-05
2 *184:A1 0.000151409
3 *183:A 0
4 *170:A 6.57072e-05
5 *172:A1 0
6 *171:A 0.000114118
7 *179:B2 8.99942e-05
8 *178:A 9.45771e-05
9 *206:X 3.77179e-05
10 *55:80 0.000234407
11 *55:71 0.000572927
12 *55:51 6.57072e-05
13 *55:38 0.00024266
14 *55:36 0.000904784
15 *55:10 0.000234333
16 *55:6 0.000295733
17 *171:A *171:C 5.83121e-06
18 *178:A *178:C 8.8266e-05
19 *179:B2 *178:C 4.24292e-06
20 *179:B2 *56:14 2.14129e-05
21 *179:B2 *56:53 7.06865e-05
22 *182:A *57:72 0
23 *55:10 *56:14 0.000187766
24 *55:71 *216:A 2.77283e-05
25 *170:B *170:A 0.000112349
26 *171:B *171:A 6.49564e-05
27 *171:B *55:38 1.07797e-05
28 *173:A1 *171:A 1.16578e-05
29 *174:B *171:A 3.47837e-05
30 *174:B *55:38 3.39151e-05
31 *178:B *178:A 4.10576e-05
32 *182:B *182:A 3.86529e-05
33 *182:C *182:A 3.87166e-05
34 *182:C *184:A1 8.80293e-06
35 *182:C *55:71 9.17267e-05
36 *182:C *55:80 7.76846e-07
37 *200:A *55:38 0
38 *202:A *179:B2 0
39 *22:14 *170:A 4.82919e-05
40 *44:10 *171:A 3.25831e-05
41 *44:23 *171:A 2.92838e-05
42 *44:69 *182:A 2.42236e-05
43 *44:69 *184:A1 0.000159549
44 *51:8 *179:B2 4.82863e-05
45 *51:12 *179:B2 6.10014e-05
46 *51:12 *55:10 5.18691e-05
47 *51:14 *55:10 5.21046e-05
48 *51:14 *55:36 0.000100308
49 *51:14 *55:38 0.000124752
50 *51:29 *170:A 4.82919e-05
51 *52:6 *171:A 0.00012657
52 *52:12 *171:A 0
53 *52:12 *55:36 0
54 *52:12 *55:38 0
55 *52:47 *184:A1 9.09788e-06
56 *52:66 *184:A1 6.28251e-05
57 *53:20 *179:B2 8.53113e-06
*RES
1 *206:X *55:6 2.05 
2 *55:6 *55:10 4.145 
3 *55:10 *178:A 5.43 
4 *55:10 *179:B2 5.685 
5 *55:6 *55:36 5.63 
6 *55:36 *55:38 2.91 
7 *55:38 *171:A 6.63 
8 *55:38 *55:51 2 
9 *55:51 *172:A1 1.6 