*SPEF "ieee 1481-1999"
*DESIGN "SarsaNada_e10_1"
*DATE "14:07:56 Tuesday September 16, 2025"
*VENDOR "The OpenROAD Project"
*PROGRAM "OpenROAD"
*VERSION "edf00dff99f6c40d67a30c0e22a8191c5d2ed9d6"
*DESIGN_FLOW "NAME_SCOPE LOCAL" "PIN_CAP NONE"
*DIVIDER /
*DELIMITER :
*BUS_DELIMITER []
*T_UNIT 1 NS
*C_UNIT 1 PF
*R_UNIT 1 OHM
*L_UNIT 1 HENRY

*NAME_MAP
*1 A[0]
*2 A[1]
*3 B[0]
*4 B[1]
*5 P[0]
*6 P[1]
*7 P[2]
*8 P[3]
*11 _0_
*12 _1_
*13 net1
*14 net2
*15 net3
*16 net4
*17 net5
*18 net6
*19 net7
*20 net8
*21 FILLER_0_15
*22 FILLER_0_27
*23 FILLER_0_29
*24 FILLER_0_3
*25 FILLER_0_37
*26 FILLER_0_41
*27 FILLER_0_49
*28 FILLER_0_55
*29 FILLER_0_57
*30 FILLER_0_69
*31 FILLER_1_15
*32 FILLER_1_27
*33 FILLER_1_3
*34 FILLER_1_39
*35 FILLER_1_51
*36 FILLER_1_55
*37 FILLER_1_57
*38 FILLER_1_69
*39 FILLER_2_15
*40 FILLER_2_27
*41 FILLER_2_29
*42 FILLER_2_3
*43 FILLER_2_33
*44 FILLER_2_41
*45 FILLER_2_53
*46 FILLER_2_65
*47 FILLER_2_77
*48 FILLER_3_15
*49 FILLER_3_27
*50 FILLER_3_3
*51 FILLER_3_39
*52 FILLER_3_51
*53 FILLER_3_55
*54 FILLER_3_57
*55 FILLER_3_69
*56 FILLER_4_15
*57 FILLER_4_27
*58 FILLER_4_29
*59 FILLER_4_3
*60 FILLER_4_41
*61 FILLER_4_53
*62 FILLER_4_65
*63 FILLER_4_77
*64 FILLER_5_15
*65 FILLER_5_27
*66 FILLER_5_3
*67 FILLER_5_39
*68 FILLER_5_51
*69 FILLER_5_55
*70 FILLER_5_57
*71 FILLER_5_69
*72 FILLER_6_15
*73 FILLER_6_27
*74 FILLER_6_29
*75 FILLER_6_3
*76 FILLER_6_41
*77 FILLER_6_53
*78 FILLER_6_65
*79 FILLER_6_77
*80 FILLER_7_15
*81 FILLER_7_27
*82 FILLER_7_3
*83 FILLER_7_33
*84 FILLER_7_51
*85 FILLER_7_55
*86 FILLER_7_57
*87 FILLER_7_69
*88 FILLER_8_15
*89 FILLER_8_27
*90 FILLER_8_29
*91 FILLER_8_3
*92 FILLER_8_37
*93 FILLER_8_54
*94 FILLER_8_66
*95 FILLER_8_78
*96 FILLER_9_15
*97 FILLER_9_23
*98 FILLER_9_27
*99 FILLER_9_29
*100 FILLER_9_3
*101 FILLER_9_34
*102 FILLER_9_42
*103 FILLER_9_49
*104 FILLER_9_57
*105 FILLER_9_69
*106 PHY_EDGE_ROW_0_Left_10
*107 PHY_EDGE_ROW_0_Right_0
*108 PHY_EDGE_ROW_1_Left_11
*109 PHY_EDGE_ROW_1_Right_1
*110 PHY_EDGE_ROW_2_Left_12
*111 PHY_EDGE_ROW_2_Right_2
*112 PHY_EDGE_ROW_3_Left_13
*113 PHY_EDGE_ROW_3_Right_3
*114 PHY_EDGE_ROW_4_Left_14
*115 PHY_EDGE_ROW_4_Right_4
*116 PHY_EDGE_ROW_5_Left_15
*117 PHY_EDGE_ROW_5_Right_5
*118 PHY_EDGE_ROW_6_Left_16
*119 PHY_EDGE_ROW_6_Right_6
*120 PHY_EDGE_ROW_7_Left_17
*121 PHY_EDGE_ROW_7_Right_7
*122 PHY_EDGE_ROW_8_Left_18
*123 PHY_EDGE_ROW_8_Right_8
*124 PHY_EDGE_ROW_9_Left_19
*125 PHY_EDGE_ROW_9_Right_9
*126 TAP_TAPCELL_ROW_0_20
*127 TAP_TAPCELL_ROW_0_21
*128 TAP_TAPCELL_ROW_1_22
*129 TAP_TAPCELL_ROW_2_23
*130 TAP_TAPCELL_ROW_3_24
*131 TAP_TAPCELL_ROW_4_25
*132 TAP_TAPCELL_ROW_5_26
*133 TAP_TAPCELL_ROW_6_27
*134 TAP_TAPCELL_ROW_7_28
*135 TAP_TAPCELL_ROW_8_29
*136 TAP_TAPCELL_ROW_9_30
*137 TAP_TAPCELL_ROW_9_31
*138 _2_
*139 _3_
*140 _4_
*141 _5_
*142 _6_
*143 _7_
*144 input1
*145 input2
*146 input3
*147 input4
*148 output5
*149 output6
*150 output7
*151 output8

*PORTS
A[0] I
A[1] I
B[0] I
B[1] I
P[0] O
P[1] O
P[2] O
P[3] O

*D_NET *1 0.000905043
*CONN
*P A[0] I
*I *144:A I *D sky130_fd_sc_hd__buf_1
*CAP
1 A[0] 0.000449835
2 *144:A 0.000449835
3 *144:A P[0] 0
4 *144:A *13:10 5.37348e-06
*RES
1 A[0] *144:A 47.3214 
*END

*D_NET *2 0.000980411
*CONN
*P A[1] I
*I *145:A I *D sky130_fd_sc_hd__buf_1
*CAP
1 A[1] 0.000490205
2 *145:A 0.000490205
3 *145:A *146:A 0
*RES
1 A[1] *145:A 48.73 
*END

*D_NET *3 0.000980411
*CONN
*P B[0] I
*I *146:A I *D sky130_fd_sc_hd__clkbuf_1
*CAP
1 B[0] 0.000490205
2 *146:A 0.000490205
3 *146:A P[3] 0
4 *145:A *146:A 0
*RES
1 B[0] *146:A 48.73 
*END

*D_NET *4 0.000980411
*CONN
*P B[1] I
*I *147:A I *D sky130_fd_sc_hd__dlymetal6s2s_1
*CAP
1 B[1] 0.000490205
2 *147:A 0.000490205
3 *147:A P[2] 0
4 *147:A *19:10 0
*RES
1 B[1] *147:A 48.73 
*END

*D_NET *5 0.000986104
*CONN
*P P[0] O
*I *148:X O *D sky130_fd_sc_hd__buf_2
*CAP
1 P[0] 0.000493052
2 *148:X 0.000493052
3 *144:A P[0] 0
*RES
1 *148:X P[0] 47.86 
*END

*D_NET *6 0.00100219
*CONN
*P P[1] O
*I *149:X O *D sky130_fd_sc_hd__buf_2
*CAP
1 P[1] 0.000501094
2 *149:X 0.000501094
3 P[1] P[2] 0
4 P[1] P[3] 0
*RES
1 *149:X P[1] 48.9786 
*END

*D_NET *7 0.000960449
*CONN
*P P[2] O
*I *150:X O *D sky130_fd_sc_hd__buf_2
*CAP
1 P[2] 0.000480224
2 *150:X 0.000480224
3 P[1] P[2] 0
4 *147:A P[2] 0
*RES
1 *150:X P[2] 48.5021 
*END

*D_NET *8 0.000960449
*CONN
*P P[3] O
*I *151:X O *D sky130_fd_sc_hd__buf_2
*CAP
1 P[3] 0.000480224
2 *151:X 0.000480224
3 P[1] P[3] 0
4 *146:A P[3] 0
*RES
1 *151:X P[3] 48.5021 
*END

*D_NET *11 0.00122951
*CONN
*I *141:A1 I *D sky130_fd_sc_hd__o21ba_1
*I *139:Y O *D sky130_fd_sc_hd__nor2_1
*CAP
1 *141:A1 0.000307963
2 *139:Y 7.89691e-05
3 *11:8 0.000386933
4 *141:A1 *141:A2 5.56356e-05
5 *141:A1 *142:B 1.05235e-05
6 *141:A1 *14:38 0.000135037
7 *141:A1 *20:12 0.000143535
8 *11:8 *16:14 0.000110913
*RES
1 *139:Y *11:8 39.5536 
2 *11:8 *141:A1 43.4064 
*END

*D_NET *12 0.000424647
*CONN
*I *141:A2 I *D sky130_fd_sc_hd__o21ba_1
*I *140:X O *D sky130_fd_sc_hd__a22o_1
*CAP
1 *141:A2 2.80909e-05
2 *140:X 8.59359e-05
3 *12:8 0.000114027
4 *12:8 *14:10 0.000140958
5 *141:A1 *141:A2 5.56356e-05
*RES
1 *140:X *12:8 39.9057 
2 *12:8 *141:A2 38.6214 
*END

*D_NET *13 0.00402818
*CONN
*I *138:D I *D sky130_fd_sc_hd__and4_1
*I *140:B2 I *D sky130_fd_sc_hd__a22o_1
*I *143:B I *D sky130_fd_sc_hd__xor2_1
*I *144:X O *D sky130_fd_sc_hd__buf_1
*CAP
1 *138:D 0.000114878
2 *140:B2 0.000144825
3 *143:B 2.98451e-05
4 *144:X 0.000367271
5 *13:23 0.000759179
6 *13:10 0.000896592
7 *138:D *140:A2 5.67058e-05
8 *138:D *14:21 0.000177398
9 *138:D *14:30 5.04675e-05
10 *138:D *16:20 6.67393e-05
11 *138:D *16:22 0.00011906
12 *138:D *16:30 2.02872e-05
13 *140:B2 *138:A 1.46205e-05
14 *140:B2 *16:30 9.74542e-05
15 *143:B *16:43 5.56279e-05
16 *13:10 *16:43 3.47781e-05
17 *13:10 *17:10 0
18 *13:23 *16:30 1.3221e-05
19 *13:23 *16:43 0.00100385
20 *144:A *13:10 5.37348e-06
*RES
1 *144:X *13:10 44.1729 
2 *13:10 *143:B 38.6214 
3 *13:10 *13:23 28.5264 
4 *13:23 *140:B2 25.9 
5 *13:23 *138:D 27.4743 
*END

*D_NET *14 0.00359616
*CONN
*I *139:A I *D sky130_fd_sc_hd__nor2_1
*I *142:C I *D sky130_fd_sc_hd__and3b_1
*I *138:B I *D sky130_fd_sc_hd__and4_1
*I *140:A2 I *D sky130_fd_sc_hd__a22o_1
*I *145:X O *D sky130_fd_sc_hd__buf_1
*CAP
1 *139:A 0.000129689
2 *142:C 0
3 *138:B 0
4 *140:A2 1.08768e-05
5 *145:X 0.000537476
6 *14:38 0.000266324
7 *14:30 0.000494968
8 *14:21 0.000145289
9 *14:12 5.72111e-05
10 *14:10 0.000537476
11 *139:A *16:20 4.12182e-05
12 *140:A2 *138:A 5.50049e-05
13 *14:10 *15:10 0.000531479
14 *14:10 *16:30 3.36312e-06
15 *14:10 *20:20 0
16 *14:21 *138:A 0.000100069
17 *14:30 *16:20 1.70513e-05
18 *14:38 *142:B 9.52814e-06
19 *14:38 *16:14 1.22906e-05
20 *14:38 *20:8 8.62783e-05
21 *138:D *140:A2 5.67058e-05
22 *138:D *14:21 0.000177398
23 *138:D *14:30 5.04675e-05
24 *141:A1 *14:38 0.000135037
25 *12:8 *14:10 0.000140958
*RES
1 *145:X *14:10 49.4136 
2 *14:10 *14:12 15 
3 *14:12 *140:A2 23.6214 
4 *14:12 *14:21 2.05071 
5 *14:21 *138:B 23 
6 *14:21 *14:30 2.07143 
7 *14:30 *14:38 34.0807 
8 *14:38 *142:C 23 
9 *14:30 *139:A 25.5479 
*END

*D_NET *15 0.00164371
*CONN
*I *138:A I *D sky130_fd_sc_hd__and4_1
*I *140:A1 I *D sky130_fd_sc_hd__a22o_1
*I *146:X O *D sky130_fd_sc_hd__clkbuf_1
*CAP
1 *138:A 8.55672e-05
2 *140:A1 0
3 *146:X 0.00032604
4 *15:16 0.000145227
5 *15:10 0.0003857
6 *140:A2 *138:A 5.50049e-05
7 *140:B2 *138:A 1.46205e-05
8 *14:10 *15:10 0.000531479
9 *14:21 *138:A 0.000100069
*RES
1 *146:X *15:10 44.5457 
2 *15:10 *15:16 16.1186 
3 *15:16 *140:A1 23 
4 *15:16 *138:A 25.0507 
*END

*D_NET *16 0.00572309
*CONN
*I *142:B I *D sky130_fd_sc_hd__and3b_1
*I *139:B I *D sky130_fd_sc_hd__nor2_1
*I *138:C I *D sky130_fd_sc_hd__and4_1
*I *143:A I *D sky130_fd_sc_hd__xor2_1
*I *140:B1 I *D sky130_fd_sc_hd__a22o_1
*I *147:X O *D sky130_fd_sc_hd__dlymetal6s2s_1
*CAP
1 *142:B 0.000124187
2 *139:B 0
3 *138:C 0
4 *143:A 0
5 *140:B1 0
6 *147:X 0.000484724
7 *16:54 0.000110751
8 *16:43 0.000577229
9 *16:30 0.000202339
10 *16:22 0.000939041
11 *16:20 0.000412436
12 *16:14 0.0003087
13 *16:10 0.000775397
14 *16:10 *18:10 3.45849e-05
15 *16:10 *19:10 0
16 *16:14 *18:10 2.24366e-06
17 *16:14 *20:8 0.000135547
18 *16:43 *17:10 0
19 *138:D *16:20 6.67393e-05
20 *138:D *16:22 0.00011906
21 *138:D *16:30 2.02872e-05
22 *139:A *16:20 4.12182e-05
23 *140:B2 *16:30 9.74542e-05
24 *141:A1 *142:B 1.05235e-05
25 *143:B *16:43 5.56279e-05
26 *11:8 *16:14 0.000110913
27 *13:10 *16:43 3.47781e-05
28 *13:23 *16:30 1.3221e-05
29 *13:23 *16:43 0.00100385
30 *14:10 *16:30 3.36312e-06
31 *14:30 *16:20 1.70513e-05
32 *14:38 *142:B 9.52814e-06
33 *14:38 *16:14 1.22906e-05
*RES
1 *147:X *16:10 46.7207 
2 *16:10 *16:14 18.6664 
3 *16:14 *16:20 3.39714 
4 *16:20 *16:22 2.52714 
5 *16:22 *16:30 32.7757 
6 *16:30 *140:B1 23 
7 *16:22 *16:43 45.1007 
8 *16:43 *143:A 23 
9 *16:20 *16:54 31.2014 
10 *16:54 *138:C 23 
11 *16:14 *139:B 23 
12 *16:10 *142:B 39.5743 
*END

*D_NET *17 0.000946291
*CONN
*I *148:A I *D sky130_fd_sc_hd__buf_2
*I *143:X O *D sky130_fd_sc_hd__xor2_1
*CAP
1 *148:A 0
2 *143:X 0.000473146
3 *17:10 0.000473146
4 *13:10 *17:10 0
5 *16:43 *17:10 0
*RES
1 *143:X *17:10 46.6586 
2 *17:10 *148:A 38 
*END

*D_NET *18 0.000462768
*CONN
*I *149:A I *D sky130_fd_sc_hd__buf_2
*I *141:X O *D sky130_fd_sc_hd__o21ba_1
*CAP
1 *149:A 0
2 *141:X 0.000118467
3 *18:10 0.000118467
4 *18:10 *20:12 2.18926e-05
5 *18:10 *20:20 0.000167113
6 *16:10 *18:10 3.45849e-05
7 *16:14 *18:10 2.24366e-06
*RES
1 *141:X *18:10 40.8793 
2 *18:10 *149:A 38 
*END

*D_NET *19 0.000450862
*CONN
*I *150:A I *D sky130_fd_sc_hd__buf_2
*I *142:X O *D sky130_fd_sc_hd__and3b_1
*CAP
1 *150:A 0
2 *142:X 0.000225431
3 *19:10 0.000225431
4 *147:A *19:10 0
5 *16:10 *19:10 0
*RES
1 *142:X *19:10 41.3557 
2 *19:10 *150:A 38 
*END

*D_NET *20 0.00128447
*CONN
*I *142:A_N I *D sky130_fd_sc_hd__and3b_1
*I *141:B1_N I *D sky130_fd_sc_hd__o21ba_1
*I *151:A I *D sky130_fd_sc_hd__buf_2
*I *138:X O *D sky130_fd_sc_hd__and4_1
*CAP
1 *142:A_N 0
2 *141:B1_N 0
3 *151:A 0
4 *138:X 7.36434e-05
5 *20:20 0.000237817
6 *20:12 0.000291409
7 *20:10 5.35916e-05
8 *20:8 7.36434e-05
9 *141:A1 *20:12 0.000143535
10 *14:10 *20:20 0
11 *14:38 *20:8 8.62783e-05
12 *16:14 *20:8 0.000135547
13 *18:10 *20:12 2.18926e-05
14 *18:10 *20:20 0.000167113
*RES
1 *138:X *20:8 39.9057 
2 *20:8 *20:10 15 
3 *20:10 *20:12 1.57429 
4 *20:12 *20:20 34.8886 
5 *20:20 *151:A 23 
6 *20:12 *141:B1_N 23 
7 *20:10 *142:A_N 23 
*END
