*SPEF "ieee 1481-1999"
*DESIGN "mult8_2bits_1op_e17301"
*DATE "14:55:57 Tuesday September 16, 2025"
*VENDOR "The OpenROAD Project"
*PROGRAM "OpenROAD"
*VERSION "edf00dff99f6c40d67a30c0e22a8191c5d2ed9d6"
*DESIGN_FLOW "NAME_SCOPE LOCAL" "PIN_CAP NONE"
*DIVIDER /
*DELIMITER :
*BUS_DELIMITER []
*T_UNIT 1 NS
*C_UNIT 1 PF
*R_UNIT 1 OHM
*L_UNIT 1 HENRY

*NAME_MAP
*1 A[0]
*2 A[1]
*3 A[2]
*4 A[3]
*5 A[4]
*6 A[5]
*7 A[6]
*8 A[7]
*9 B[0]
*10 B[1]
*11 B[2]
*12 B[3]
*13 B[4]
*14 B[5]
*15 B[6]
*16 B[7]
*17 P[0]
*18 P[10]
*19 P[11]
*20 P[12]
*21 P[13]
*22 P[14]
*23 P[15]
*24 P[1]
*25 P[2]
*26 P[3]
*27 P[4]
*28 P[5]
*29 P[6]
*30 P[7]
*31 P[8]
*32 P[9]
*35 _000_
*36 _001_
*37 _002_
*38 _003_
*39 _004_
*40 _005_
*41 _006_
*42 _007_
*43 _008_
*44 _009_
*45 _010_
*46 _011_
*47 _012_
*48 _013_
*49 _014_
*50 _015_
*51 _016_
*52 _017_
*53 _018_
*54 _019_
*55 _020_
*56 _021_
*57 _022_
*58 _023_
*59 _024_
*60 _025_
*61 _026_
*62 _027_
*63 _028_
*64 _029_
*65 _030_
*66 _031_
*67 _032_
*68 _033_
*69 _034_
*70 _035_
*71 _036_
*72 _037_
*73 _038_
*74 _039_
*75 _040_
*76 _041_
*77 _042_
*78 _043_
*79 _044_
*80 _045_
*81 _046_
*82 _047_
*83 _048_
*84 _049_
*85 _050_
*86 _051_
*87 _052_
*88 _053_
*89 _054_
*90 _055_
*91 _056_
*92 _057_
*93 _058_
*94 _059_
*95 _060_
*96 _061_
*97 _062_
*98 _063_
*99 _064_
*100 _065_
*101 _066_
*102 _067_
*103 _068_
*104 _069_
*105 _070_
*106 _071_
*107 _072_
*108 _073_
*109 _074_
*110 _075_
*111 _076_
*112 _077_
*113 _078_
*114 _079_
*115 _080_
*116 _081_
*117 _082_
*118 _083_
*119 _084_
*120 _085_
*121 _086_
*122 _087_
*123 _088_
*124 _089_
*125 _090_
*126 _091_
*127 _092_
*128 _093_
*129 _094_
*130 _095_
*131 _096_
*132 _097_
*133 _098_
*134 _099_
*135 _100_
*136 _101_
*137 _102_
*138 _103_
*139 _104_
*140 _105_
*141 _106_
*142 _107_
*143 _108_
*144 _109_
*145 _110_
*146 _111_
*147 _112_
*148 _113_
*149 _114_
*150 _115_
*151 _116_
*152 _117_
*153 _118_
*154 _119_
*155 _120_
*156 _121_
*157 _122_
*158 _123_
*159 _124_
*160 _125_
*161 _126_
*162 _127_
*163 _128_
*164 _129_
*165 _130_
*166 _131_
*167 _132_
*168 _133_
*169 _134_
*170 _135_
*171 _136_
*172 _137_
*173 _138_
*174 _139_
*175 _140_
*176 _141_
*177 _142_
*178 _143_
*179 _144_
*180 _145_
*181 _146_
*182 _147_
*183 _148_
*184 _149_
*185 _150_
*186 _151_
*187 _152_
*188 _153_
*189 _154_
*190 _155_
*191 _156_
*192 _157_
*193 _158_
*194 _159_
*195 _160_
*196 _161_
*197 _162_
*198 _163_
*199 _164_
*200 _165_
*201 _166_
*202 _167_
*203 _168_
*204 _169_
*205 _170_
*206 _171_
*207 _172_
*208 _173_
*209 _174_
*210 _175_
*211 _176_
*212 _177_
*213 _178_
*214 _179_
*215 _180_
*216 _181_
*217 _182_
*218 _183_
*219 _184_
*220 _185_
*221 _186_
*222 _187_
*223 _188_
*224 _189_
*225 _190_
*226 _191_
*227 _192_
*228 _193_
*229 _194_
*230 _195_
*231 _196_
*232 _197_
*233 _198_
*234 _199_
*235 _200_
*236 _201_
*237 _202_
*238 _203_
*239 _204_
*240 _205_
*241 _206_
*242 _207_
*243 _208_
*244 _209_
*245 _210_
*246 _211_
*247 _212_
*248 _213_
*249 _214_
*250 _215_
*251 _216_
*252 _217_
*253 _218_
*254 _219_
*255 _220_
*256 _221_
*257 _222_
*258 _223_
*259 _224_
*260 _225_
*261 _226_
*262 _227_
*263 _228_
*264 _229_
*265 _230_
*266 mul_ll\.mul_ll\.pp0
*267 net1
*268 net10
*269 net100
*270 net101
*271 net102
*272 net103
*273 net11
*274 net12
*275 net13
*276 net14
*277 net15
*278 net16
*279 net17
*280 net18
*281 net19
*282 net2
*283 net20
*284 net21
*285 net22
*286 net23
*287 net24
*288 net25
*289 net26
*290 net27
*291 net28
*292 net29
*293 net3
*294 net30
*295 net31
*296 net32
*297 net33
*298 net34
*299 net35
*300 net36
*301 net37
*302 net38
*303 net39
*304 net4
*305 net40
*306 net41
*307 net42
*308 net43
*309 net44
*310 net45
*311 net46
*312 net47
*313 net48
*314 net49
*315 net5
*316 net50
*317 net51
*318 net52
*319 net53
*320 net54
*321 net55
*322 net56
*323 net57
*324 net58
*325 net6
*326 net67
*327 net68
*328 net69
*329 net7
*330 net70
*331 net71
*332 net72
*333 net74
*334 net75
*335 net76
*336 net77
*337 net78
*338 net8
*339 net9
*340 net93
*341 net94
*342 net95
*343 FILLER_0_109
*344 FILLER_0_113
*345 FILLER_0_121
*346 FILLER_0_125
*347 FILLER_0_133
*348 FILLER_0_141
*349 FILLER_0_149
*350 FILLER_0_15
*351 FILLER_0_161
*352 FILLER_0_167
*353 FILLER_0_169
*354 FILLER_0_181
*355 FILLER_0_189
*356 FILLER_0_195
*357 FILLER_0_197
*358 FILLER_0_203
*359 FILLER_0_215
*360 FILLER_0_223
*361 FILLER_0_225
*362 FILLER_0_237
*363 FILLER_0_249
*364 FILLER_0_253
*365 FILLER_0_261
*366 FILLER_0_266
*367 FILLER_0_27
*368 FILLER_0_278
*369 FILLER_0_281
*370 FILLER_0_29
*371 FILLER_0_293
*372 FILLER_0_3
*373 FILLER_0_301
*374 FILLER_0_307
*375 FILLER_0_309
*376 FILLER_0_321
*377 FILLER_0_333
*378 FILLER_0_337
*379 FILLER_0_349
*380 FILLER_0_361
*381 FILLER_0_365
*382 FILLER_0_377
*383 FILLER_0_389
*384 FILLER_0_393
*385 FILLER_0_405
*386 FILLER_0_41
*387 FILLER_0_53
*388 FILLER_0_57
*389 FILLER_0_69
*390 FILLER_0_81
*391 FILLER_0_85
*392 FILLER_0_97
*393 FILLER_10_109
*394 FILLER_10_121
*395 FILLER_10_133
*396 FILLER_10_139
*397 FILLER_10_141
*398 FILLER_10_15
*399 FILLER_10_153
*400 FILLER_10_165
*401 FILLER_10_177
*402 FILLER_10_189
*403 FILLER_10_195
*404 FILLER_10_197
*405 FILLER_10_209
*406 FILLER_10_221
*407 FILLER_10_233
*408 FILLER_10_245
*409 FILLER_10_251
*410 FILLER_10_253
*411 FILLER_10_266
*412 FILLER_10_27
*413 FILLER_10_278
*414 FILLER_10_286
*415 FILLER_10_29
*416 FILLER_10_3
*417 FILLER_10_303
*418 FILLER_10_307
*419 FILLER_10_309
*420 FILLER_10_321
*421 FILLER_10_333
*422 FILLER_10_345
*423 FILLER_10_357
*424 FILLER_10_363
*425 FILLER_10_365
*426 FILLER_10_377
*427 FILLER_10_389
*428 FILLER_10_401
*429 FILLER_10_41
*430 FILLER_10_53
*431 FILLER_10_65
*432 FILLER_10_77
*433 FILLER_10_83
*434 FILLER_10_85
*435 FILLER_10_97
*436 FILLER_11_105
*437 FILLER_11_111
*438 FILLER_11_113
*439 FILLER_11_125
*440 FILLER_11_137
*441 FILLER_11_149
*442 FILLER_11_15
*443 FILLER_11_161
*444 FILLER_11_167
*445 FILLER_11_169
*446 FILLER_11_181
*447 FILLER_11_193
*448 FILLER_11_205
*449 FILLER_11_217
*450 FILLER_11_223
*451 FILLER_11_230
*452 FILLER_11_239
*453 FILLER_11_246
*454 FILLER_11_268
*455 FILLER_11_27
*456 FILLER_11_279
*457 FILLER_11_291
*458 FILLER_11_297
*459 FILLER_11_3
*460 FILLER_11_309
*461 FILLER_11_321
*462 FILLER_11_333
*463 FILLER_11_337
*464 FILLER_11_349
*465 FILLER_11_361
*466 FILLER_11_373
*467 FILLER_11_385
*468 FILLER_11_39
*469 FILLER_11_391
*470 FILLER_11_393
*471 FILLER_11_405
*472 FILLER_11_51
*473 FILLER_11_55
*474 FILLER_11_57
*475 FILLER_11_69
*476 FILLER_11_81
*477 FILLER_11_93
*478 FILLER_12_109
*479 FILLER_12_121
*480 FILLER_12_133
*481 FILLER_12_139
*482 FILLER_12_141
*483 FILLER_12_15
*484 FILLER_12_153
*485 FILLER_12_165
*486 FILLER_12_177
*487 FILLER_12_189
*488 FILLER_12_195
*489 FILLER_12_197
*490 FILLER_12_209
*491 FILLER_12_249
*492 FILLER_12_263
*493 FILLER_12_27
*494 FILLER_12_29
*495 FILLER_12_3
*496 FILLER_12_309
*497 FILLER_12_321
*498 FILLER_12_333
*499 FILLER_12_345
*500 FILLER_12_357
*501 FILLER_12_363
*502 FILLER_12_365
*503 FILLER_12_377
*504 FILLER_12_389
*505 FILLER_12_401
*506 FILLER_12_41
*507 FILLER_12_53
*508 FILLER_12_65
*509 FILLER_12_77
*510 FILLER_12_83
*511 FILLER_12_85
*512 FILLER_12_97
*513 FILLER_13_105
*514 FILLER_13_111
*515 FILLER_13_113
*516 FILLER_13_125
*517 FILLER_13_137
*518 FILLER_13_149
*519 FILLER_13_15
*520 FILLER_13_161
*521 FILLER_13_167
*522 FILLER_13_169
*523 FILLER_13_181
*524 FILLER_13_193
*525 FILLER_13_205
*526 FILLER_13_217
*527 FILLER_13_223
*528 FILLER_13_244
*529 FILLER_13_256
*530 FILLER_13_268
*531 FILLER_13_27
*532 FILLER_13_281
*533 FILLER_13_289
*534 FILLER_13_3
*535 FILLER_13_301
*536 FILLER_13_313
*537 FILLER_13_324
*538 FILLER_13_337
*539 FILLER_13_349
*540 FILLER_13_361
*541 FILLER_13_373
*542 FILLER_13_385
*543 FILLER_13_39
*544 FILLER_13_391
*545 FILLER_13_393
*546 FILLER_13_405
*547 FILLER_13_51
*548 FILLER_13_55
*549 FILLER_13_57
*550 FILLER_13_69
*551 FILLER_13_81
*552 FILLER_13_93
*553 FILLER_14_109
*554 FILLER_14_121
*555 FILLER_14_133
*556 FILLER_14_139
*557 FILLER_14_141
*558 FILLER_14_15
*559 FILLER_14_153
*560 FILLER_14_165
*561 FILLER_14_177
*562 FILLER_14_189
*563 FILLER_14_195
*564 FILLER_14_197
*565 FILLER_14_209
*566 FILLER_14_221
*567 FILLER_14_233
*568 FILLER_14_245
*569 FILLER_14_251
*570 FILLER_14_253
*571 FILLER_14_265
*572 FILLER_14_27
*573 FILLER_14_277
*574 FILLER_14_289
*575 FILLER_14_29
*576 FILLER_14_3
*577 FILLER_14_301
*578 FILLER_14_307
*579 FILLER_14_309
*580 FILLER_14_321
*581 FILLER_14_333
*582 FILLER_14_345
*583 FILLER_14_357
*584 FILLER_14_363
*585 FILLER_14_365
*586 FILLER_14_377
*587 FILLER_14_389
*588 FILLER_14_401
*589 FILLER_14_41
*590 FILLER_14_53
*591 FILLER_14_65
*592 FILLER_14_77
*593 FILLER_14_83
*594 FILLER_14_85
*595 FILLER_14_97
*596 FILLER_15_105
*597 FILLER_15_111
*598 FILLER_15_113
*599 FILLER_15_125
*600 FILLER_15_137
*601 FILLER_15_149
*602 FILLER_15_15
*603 FILLER_15_161
*604 FILLER_15_167
*605 FILLER_15_169
*606 FILLER_15_181
*607 FILLER_15_193
*608 FILLER_15_205
*609 FILLER_15_217
*610 FILLER_15_223
*611 FILLER_15_225
*612 FILLER_15_237
*613 FILLER_15_249
*614 FILLER_15_261
*615 FILLER_15_27
*616 FILLER_15_273
*617 FILLER_15_279
*618 FILLER_15_281
*619 FILLER_15_293
*620 FILLER_15_3
*621 FILLER_15_305
*622 FILLER_15_317
*623 FILLER_15_329
*624 FILLER_15_335
*625 FILLER_15_337
*626 FILLER_15_349
*627 FILLER_15_361
*628 FILLER_15_373
*629 FILLER_15_384
*630 FILLER_15_39
*631 FILLER_15_396
*632 FILLER_15_404
*633 FILLER_15_51
*634 FILLER_15_55
*635 FILLER_15_57
*636 FILLER_15_69
*637 FILLER_15_81
*638 FILLER_15_93
*639 FILLER_16_109
*640 FILLER_16_121
*641 FILLER_16_133
*642 FILLER_16_139
*643 FILLER_16_141
*644 FILLER_16_15
*645 FILLER_16_153
*646 FILLER_16_165
*647 FILLER_16_177
*648 FILLER_16_189
*649 FILLER_16_195
*650 FILLER_16_197
*651 FILLER_16_209
*652 FILLER_16_221
*653 FILLER_16_233
*654 FILLER_16_245
*655 FILLER_16_251
*656 FILLER_16_253
*657 FILLER_16_265
*658 FILLER_16_27
*659 FILLER_16_277
*660 FILLER_16_289
*661 FILLER_16_29
*662 FILLER_16_3
*663 FILLER_16_301
*664 FILLER_16_307
*665 FILLER_16_309
*666 FILLER_16_321
*667 FILLER_16_333
*668 FILLER_16_345
*669 FILLER_16_357
*670 FILLER_16_363
*671 FILLER_16_365
*672 FILLER_16_377
*673 FILLER_16_389
*674 FILLER_16_401
*675 FILLER_16_41
*676 FILLER_16_53
*677 FILLER_16_65
*678 FILLER_16_77
*679 FILLER_16_83
*680 FILLER_16_85
*681 FILLER_16_97
*682 FILLER_17_105
*683 FILLER_17_111
*684 FILLER_17_113
*685 FILLER_17_125
*686 FILLER_17_137
*687 FILLER_17_148
*688 FILLER_17_15
*689 FILLER_17_160
*690 FILLER_17_169
*691 FILLER_17_192
*692 FILLER_17_204
*693 FILLER_17_216
*694 FILLER_17_225
*695 FILLER_17_237
*696 FILLER_17_249
*697 FILLER_17_261
*698 FILLER_17_27
*699 FILLER_17_273
*700 FILLER_17_279
*701 FILLER_17_281
*702 FILLER_17_293
*703 FILLER_17_3
*704 FILLER_17_305
*705 FILLER_17_309
*706 FILLER_17_317
*707 FILLER_17_329
*708 FILLER_17_335
*709 FILLER_17_337
*710 FILLER_17_349
*711 FILLER_17_361
*712 FILLER_17_373
*713 FILLER_17_385
*714 FILLER_17_39
*715 FILLER_17_391
*716 FILLER_17_393
*717 FILLER_17_401
*718 FILLER_17_51
*719 FILLER_17_55
*720 FILLER_17_57
*721 FILLER_17_69
*722 FILLER_17_81
*723 FILLER_17_93
*724 FILLER_18_109
*725 FILLER_18_121
*726 FILLER_18_129
*727 FILLER_18_136
*728 FILLER_18_15
*729 FILLER_18_160
*730 FILLER_18_191
*731 FILLER_18_195
*732 FILLER_18_197
*733 FILLER_18_209
*734 FILLER_18_221
*735 FILLER_18_233
*736 FILLER_18_251
*737 FILLER_18_260
*738 FILLER_18_27
*739 FILLER_18_272
*740 FILLER_18_276
*741 FILLER_18_286
*742 FILLER_18_29
*743 FILLER_18_291
*744 FILLER_18_3
*745 FILLER_18_303
*746 FILLER_18_307
*747 FILLER_18_309
*748 FILLER_18_321
*749 FILLER_18_333
*750 FILLER_18_339
*751 FILLER_18_351
*752 FILLER_18_363
*753 FILLER_18_365
*754 FILLER_18_377
*755 FILLER_18_389
*756 FILLER_18_401
*757 FILLER_18_41
*758 FILLER_18_53
*759 FILLER_18_65
*760 FILLER_18_77
*761 FILLER_18_83
*762 FILLER_18_85
*763 FILLER_18_97
*764 FILLER_19_105
*765 FILLER_19_111
*766 FILLER_19_113
*767 FILLER_19_121
*768 FILLER_19_135
*769 FILLER_19_15
*770 FILLER_19_156
*771 FILLER_19_169
*772 FILLER_19_173
*773 FILLER_19_187
*774 FILLER_19_191
*775 FILLER_19_205
*776 FILLER_19_217
*777 FILLER_19_223
*778 FILLER_19_225
*779 FILLER_19_246
*780 FILLER_19_250
*781 FILLER_19_27
*782 FILLER_19_272
*783 FILLER_19_281
*784 FILLER_19_289
*785 FILLER_19_299
*786 FILLER_19_3
*787 FILLER_19_311
*788 FILLER_19_323
*789 FILLER_19_335
*790 FILLER_19_344
*791 FILLER_19_356
*792 FILLER_19_368
*793 FILLER_19_385
*794 FILLER_19_39
*795 FILLER_19_391
*796 FILLER_19_393
*797 FILLER_19_51
*798 FILLER_19_55
*799 FILLER_19_57
*800 FILLER_19_69
*801 FILLER_19_81
*802 FILLER_19_93
*803 FILLER_1_105
*804 FILLER_1_111
*805 FILLER_1_113
*806 FILLER_1_125
*807 FILLER_1_137
*808 FILLER_1_149
*809 FILLER_1_15
*810 FILLER_1_161
*811 FILLER_1_167
*812 FILLER_1_169
*813 FILLER_1_181
*814 FILLER_1_193
*815 FILLER_1_205
*816 FILLER_1_217
*817 FILLER_1_223
*818 FILLER_1_225
*819 FILLER_1_237
*820 FILLER_1_249
*821 FILLER_1_261
*822 FILLER_1_27
*823 FILLER_1_273
*824 FILLER_1_279
*825 FILLER_1_281
*826 FILLER_1_293
*827 FILLER_1_3
*828 FILLER_1_305
*829 FILLER_1_317
*830 FILLER_1_329
*831 FILLER_1_335
*832 FILLER_1_337
*833 FILLER_1_349
*834 FILLER_1_361
*835 FILLER_1_373
*836 FILLER_1_385
*837 FILLER_1_39
*838 FILLER_1_391
*839 FILLER_1_393
*840 FILLER_1_405
*841 FILLER_1_51
*842 FILLER_1_55
*843 FILLER_1_57
*844 FILLER_1_69
*845 FILLER_1_81
*846 FILLER_1_93
*847 FILLER_20_109
*848 FILLER_20_121
*849 FILLER_20_129
*850 FILLER_20_138
*851 FILLER_20_141
*852 FILLER_20_147
*853 FILLER_20_15
*854 FILLER_20_159
*855 FILLER_20_167
*856 FILLER_20_178
*857 FILLER_20_188
*858 FILLER_20_197
*859 FILLER_20_205
*860 FILLER_20_209
*861 FILLER_20_221
*862 FILLER_20_233
*863 FILLER_20_251
*864 FILLER_20_265
*865 FILLER_20_27
*866 FILLER_20_277
*867 FILLER_20_29
*868 FILLER_20_3
*869 FILLER_20_304
*870 FILLER_20_309
*871 FILLER_20_321
*872 FILLER_20_325
*873 FILLER_20_350
*874 FILLER_20_362
*875 FILLER_20_365
*876 FILLER_20_377
*877 FILLER_20_383
*878 FILLER_20_41
*879 FILLER_20_53
*880 FILLER_20_65
*881 FILLER_20_77
*882 FILLER_20_83
*883 FILLER_20_85
*884 FILLER_20_97
*885 FILLER_21_105
*886 FILLER_21_111
*887 FILLER_21_113
*888 FILLER_21_125
*889 FILLER_21_137
*890 FILLER_21_145
*891 FILLER_21_15
*892 FILLER_21_157
*893 FILLER_21_165
*894 FILLER_21_176
*895 FILLER_21_201
*896 FILLER_21_213
*897 FILLER_21_221
*898 FILLER_21_225
*899 FILLER_21_237
*900 FILLER_21_256
*901 FILLER_21_268
*902 FILLER_21_27
*903 FILLER_21_281
*904 FILLER_21_293
*905 FILLER_21_3
*906 FILLER_21_301
*907 FILLER_21_311
*908 FILLER_21_315
*909 FILLER_21_321
*910 FILLER_21_333
*911 FILLER_21_337
*912 FILLER_21_349
*913 FILLER_21_372
*914 FILLER_21_376
*915 FILLER_21_386
*916 FILLER_21_39
*917 FILLER_21_393
*918 FILLER_21_397
*919 FILLER_21_51
*920 FILLER_21_55
*921 FILLER_21_57
*922 FILLER_21_69
*923 FILLER_21_81
*924 FILLER_21_93
*925 FILLER_22_109
*926 FILLER_22_121
*927 FILLER_22_133
*928 FILLER_22_139
*929 FILLER_22_141
*930 FILLER_22_15
*931 FILLER_22_153
*932 FILLER_22_165
*933 FILLER_22_177
*934 FILLER_22_189
*935 FILLER_22_195
*936 FILLER_22_197
*937 FILLER_22_209
*938 FILLER_22_221
*939 FILLER_22_233
*940 FILLER_22_245
*941 FILLER_22_251
*942 FILLER_22_253
*943 FILLER_22_265
*944 FILLER_22_27
*945 FILLER_22_277
*946 FILLER_22_289
*947 FILLER_22_29
*948 FILLER_22_3
*949 FILLER_22_301
*950 FILLER_22_307
*951 FILLER_22_328
*952 FILLER_22_340
*953 FILLER_22_348
*954 FILLER_22_360
*955 FILLER_22_379
*956 FILLER_22_392
*957 FILLER_22_400
*958 FILLER_22_41
*959 FILLER_22_53
*960 FILLER_22_65
*961 FILLER_22_77
*962 FILLER_22_83
*963 FILLER_22_85
*964 FILLER_22_97
*965 FILLER_23_105
*966 FILLER_23_111
*967 FILLER_23_113
*968 FILLER_23_125
*969 FILLER_23_129
*970 FILLER_23_140
*971 FILLER_23_15
*972 FILLER_23_152
*973 FILLER_23_164
*974 FILLER_23_169
*975 FILLER_23_181
*976 FILLER_23_189
*977 FILLER_23_200
*978 FILLER_23_212
*979 FILLER_23_225
*980 FILLER_23_237
*981 FILLER_23_249
*982 FILLER_23_261
*983 FILLER_23_27
*984 FILLER_23_273
*985 FILLER_23_279
*986 FILLER_23_281
*987 FILLER_23_293
*988 FILLER_23_3
*989 FILLER_23_305
*990 FILLER_23_317
*991 FILLER_23_329
*992 FILLER_23_335
*993 FILLER_23_337
*994 FILLER_23_349
*995 FILLER_23_361
*996 FILLER_23_373
*997 FILLER_23_385
*998 FILLER_23_39
*999 FILLER_23_391
*1000 FILLER_23_393
*1001 FILLER_23_405
*1002 FILLER_23_51
*1003 FILLER_23_55
*1004 FILLER_23_57
*1005 FILLER_23_69
*1006 FILLER_23_81
*1007 FILLER_23_93
*1008 FILLER_24_109
*1009 FILLER_24_121
*1010 FILLER_24_125
*1011 FILLER_24_148
*1012 FILLER_24_15
*1013 FILLER_24_160
*1014 FILLER_24_172
*1015 FILLER_24_188
*1016 FILLER_24_197
*1017 FILLER_24_203
*1018 FILLER_24_207
*1019 FILLER_24_219
*1020 FILLER_24_231
*1021 FILLER_24_243
*1022 FILLER_24_251
*1023 FILLER_24_253
*1024 FILLER_24_265
*1025 FILLER_24_27
*1026 FILLER_24_277
*1027 FILLER_24_289
*1028 FILLER_24_29
*1029 FILLER_24_3
*1030 FILLER_24_301
*1031 FILLER_24_307
*1032 FILLER_24_309
*1033 FILLER_24_317
*1034 FILLER_24_325
*1035 FILLER_24_333
*1036 FILLER_24_349
*1037 FILLER_24_361
*1038 FILLER_24_365
*1039 FILLER_24_377
*1040 FILLER_24_389
*1041 FILLER_24_401
*1042 FILLER_24_41
*1043 FILLER_24_53
*1044 FILLER_24_65
*1045 FILLER_24_77
*1046 FILLER_24_83
*1047 FILLER_24_85
*1048 FILLER_24_97
*1049 FILLER_25_105
*1050 FILLER_25_111
*1051 FILLER_25_113
*1052 FILLER_25_125
*1053 FILLER_25_133
*1054 FILLER_25_139
*1055 FILLER_25_143
*1056 FILLER_25_15
*1057 FILLER_25_150
*1058 FILLER_25_162
*1059 FILLER_25_169
*1060 FILLER_25_181
*1061 FILLER_25_194
*1062 FILLER_25_206
*1063 FILLER_25_218
*1064 FILLER_25_225
*1065 FILLER_25_237
*1066 FILLER_25_249
*1067 FILLER_25_261
*1068 FILLER_25_27
*1069 FILLER_25_273
*1070 FILLER_25_279
*1071 FILLER_25_281
*1072 FILLER_25_293
*1073 FILLER_25_3
*1074 FILLER_25_300
*1075 FILLER_25_312
*1076 FILLER_25_324
*1077 FILLER_25_354
*1078 FILLER_25_366
*1079 FILLER_25_378
*1080 FILLER_25_39
*1081 FILLER_25_390
*1082 FILLER_25_393
*1083 FILLER_25_51
*1084 FILLER_25_55
*1085 FILLER_25_57
*1086 FILLER_25_69
*1087 FILLER_25_81
*1088 FILLER_25_93
*1089 FILLER_26_109
*1090 FILLER_26_121
*1091 FILLER_26_133
*1092 FILLER_26_139
*1093 FILLER_26_141
*1094 FILLER_26_15
*1095 FILLER_26_155
*1096 FILLER_26_161
*1097 FILLER_26_170
*1098 FILLER_26_182
*1099 FILLER_26_194
*1100 FILLER_26_197
*1101 FILLER_26_213
*1102 FILLER_26_225
*1103 FILLER_26_233
*1104 FILLER_26_242
*1105 FILLER_26_250
*1106 FILLER_26_253
*1107 FILLER_26_262
*1108 FILLER_26_27
*1109 FILLER_26_270
*1110 FILLER_26_276
*1111 FILLER_26_288
*1112 FILLER_26_29
*1113 FILLER_26_3
*1114 FILLER_26_300
*1115 FILLER_26_309
*1116 FILLER_26_321
*1117 FILLER_26_333
*1118 FILLER_26_341
*1119 FILLER_26_351
*1120 FILLER_26_363
*1121 FILLER_26_365
*1122 FILLER_26_377
*1123 FILLER_26_389
*1124 FILLER_26_401
*1125 FILLER_26_41
*1126 FILLER_26_53
*1127 FILLER_26_65
*1128 FILLER_26_77
*1129 FILLER_26_83
*1130 FILLER_26_85
*1131 FILLER_26_97
*1132 FILLER_27_105
*1133 FILLER_27_111
*1134 FILLER_27_113
*1135 FILLER_27_125
*1136 FILLER_27_137
*1137 FILLER_27_149
*1138 FILLER_27_15
*1139 FILLER_27_161
*1140 FILLER_27_167
*1141 FILLER_27_169
*1142 FILLER_27_181
*1143 FILLER_27_193
*1144 FILLER_27_205
*1145 FILLER_27_217
*1146 FILLER_27_223
*1147 FILLER_27_235
*1148 FILLER_27_249
*1149 FILLER_27_253
*1150 FILLER_27_264
*1151 FILLER_27_27
*1152 FILLER_27_276
*1153 FILLER_27_281
*1154 FILLER_27_293
*1155 FILLER_27_299
*1156 FILLER_27_3
*1157 FILLER_27_305
*1158 FILLER_27_313
*1159 FILLER_27_320
*1160 FILLER_27_326
*1161 FILLER_27_335
*1162 FILLER_27_337
*1163 FILLER_27_367
*1164 FILLER_27_379
*1165 FILLER_27_39
*1166 FILLER_27_391
*1167 FILLER_27_393
*1168 FILLER_27_405
*1169 FILLER_27_51
*1170 FILLER_27_55
*1171 FILLER_27_57
*1172 FILLER_27_69
*1173 FILLER_27_81
*1174 FILLER_27_93
*1175 FILLER_28_109
*1176 FILLER_28_121
*1177 FILLER_28_148
*1178 FILLER_28_15
*1179 FILLER_28_160
*1180 FILLER_28_172
*1181 FILLER_28_187
*1182 FILLER_28_195
*1183 FILLER_28_197
*1184 FILLER_28_209
*1185 FILLER_28_221
*1186 FILLER_28_225
*1187 FILLER_28_246
*1188 FILLER_28_253
*1189 FILLER_28_27
*1190 FILLER_28_276
*1191 FILLER_28_288
*1192 FILLER_28_29
*1193 FILLER_28_296
*1194 FILLER_28_3
*1195 FILLER_28_303
*1196 FILLER_28_309
*1197 FILLER_28_318
*1198 FILLER_28_333
*1199 FILLER_28_345
*1200 FILLER_28_357
*1201 FILLER_28_363
*1202 FILLER_28_365
*1203 FILLER_28_377
*1204 FILLER_28_389
*1205 FILLER_28_401
*1206 FILLER_28_41
*1207 FILLER_28_53
*1208 FILLER_28_65
*1209 FILLER_28_77
*1210 FILLER_28_83
*1211 FILLER_28_85
*1212 FILLER_28_97
*1213 FILLER_29_105
*1214 FILLER_29_111
*1215 FILLER_29_113
*1216 FILLER_29_125
*1217 FILLER_29_137
*1218 FILLER_29_15
*1219 FILLER_29_156
*1220 FILLER_29_169
*1221 FILLER_29_181
*1222 FILLER_29_193
*1223 FILLER_29_205
*1224 FILLER_29_217
*1225 FILLER_29_223
*1226 FILLER_29_230
*1227 FILLER_29_242
*1228 FILLER_29_246
*1229 FILLER_29_254
*1230 FILLER_29_266
*1231 FILLER_29_27
*1232 FILLER_29_278
*1233 FILLER_29_284
*1234 FILLER_29_296
*1235 FILLER_29_3
*1236 FILLER_29_308
*1237 FILLER_29_320
*1238 FILLER_29_332
*1239 FILLER_29_337
*1240 FILLER_29_349
*1241 FILLER_29_364
*1242 FILLER_29_376
*1243 FILLER_29_388
*1244 FILLER_29_39
*1245 FILLER_29_393
*1246 FILLER_29_405
*1247 FILLER_29_51
*1248 FILLER_29_55
*1249 FILLER_29_57
*1250 FILLER_29_69
*1251 FILLER_29_81
*1252 FILLER_29_93
*1253 FILLER_2_109
*1254 FILLER_2_121
*1255 FILLER_2_133
*1256 FILLER_2_139
*1257 FILLER_2_141
*1258 FILLER_2_15
*1259 FILLER_2_153
*1260 FILLER_2_165
*1261 FILLER_2_177
*1262 FILLER_2_189
*1263 FILLER_2_195
*1264 FILLER_2_197
*1265 FILLER_2_209
*1266 FILLER_2_221
*1267 FILLER_2_233
*1268 FILLER_2_245
*1269 FILLER_2_251
*1270 FILLER_2_253
*1271 FILLER_2_265
*1272 FILLER_2_27
*1273 FILLER_2_277
*1274 FILLER_2_289
*1275 FILLER_2_29
*1276 FILLER_2_3
*1277 FILLER_2_301
*1278 FILLER_2_307
*1279 FILLER_2_309
*1280 FILLER_2_321
*1281 FILLER_2_333
*1282 FILLER_2_345
*1283 FILLER_2_357
*1284 FILLER_2_363
*1285 FILLER_2_365
*1286 FILLER_2_377
*1287 FILLER_2_389
*1288 FILLER_2_401
*1289 FILLER_2_41
*1290 FILLER_2_53
*1291 FILLER_2_65
*1292 FILLER_2_77
*1293 FILLER_2_83
*1294 FILLER_2_85
*1295 FILLER_2_97
*1296 FILLER_30_109
*1297 FILLER_30_121
*1298 FILLER_30_133
*1299 FILLER_30_139
*1300 FILLER_30_141
*1301 FILLER_30_15
*1302 FILLER_30_153
*1303 FILLER_30_165
*1304 FILLER_30_177
*1305 FILLER_30_189
*1306 FILLER_30_195
*1307 FILLER_30_197
*1308 FILLER_30_209
*1309 FILLER_30_218
*1310 FILLER_30_230
*1311 FILLER_30_242
*1312 FILLER_30_250
*1313 FILLER_30_253
*1314 FILLER_30_265
*1315 FILLER_30_27
*1316 FILLER_30_275
*1317 FILLER_30_287
*1318 FILLER_30_29
*1319 FILLER_30_299
*1320 FILLER_30_3
*1321 FILLER_30_307
*1322 FILLER_30_309
*1323 FILLER_30_321
*1324 FILLER_30_333
*1325 FILLER_30_341
*1326 FILLER_30_360
*1327 FILLER_30_365
*1328 FILLER_30_377
*1329 FILLER_30_389
*1330 FILLER_30_41
*1331 FILLER_30_53
*1332 FILLER_30_65
*1333 FILLER_30_77
*1334 FILLER_30_83
*1335 FILLER_30_85
*1336 FILLER_30_97
*1337 FILLER_31_109
*1338 FILLER_31_120
*1339 FILLER_31_128
*1340 FILLER_31_138
*1341 FILLER_31_15
*1342 FILLER_31_150
*1343 FILLER_31_162
*1344 FILLER_31_169
*1345 FILLER_31_181
*1346 FILLER_31_193
*1347 FILLER_31_205
*1348 FILLER_31_220
*1349 FILLER_31_225
*1350 FILLER_31_237
*1351 FILLER_31_249
*1352 FILLER_31_261
*1353 FILLER_31_265
*1354 FILLER_31_27
*1355 FILLER_31_274
*1356 FILLER_31_281
*1357 FILLER_31_293
*1358 FILLER_31_3
*1359 FILLER_31_305
*1360 FILLER_31_317
*1361 FILLER_31_329
*1362 FILLER_31_335
*1363 FILLER_31_360
*1364 FILLER_31_372
*1365 FILLER_31_384
*1366 FILLER_31_39
*1367 FILLER_31_396
*1368 FILLER_31_404
*1369 FILLER_31_51
*1370 FILLER_31_55
*1371 FILLER_31_57
*1372 FILLER_31_69
*1373 FILLER_31_81
*1374 FILLER_31_85
*1375 FILLER_31_93
*1376 FILLER_32_108
*1377 FILLER_32_120
*1378 FILLER_32_141
*1379 FILLER_32_15
*1380 FILLER_32_153
*1381 FILLER_32_166
*1382 FILLER_32_178
*1383 FILLER_32_190
*1384 FILLER_32_197
*1385 FILLER_32_209
*1386 FILLER_32_234
*1387 FILLER_32_246
*1388 FILLER_32_253
*1389 FILLER_32_265
*1390 FILLER_32_27
*1391 FILLER_32_277
*1392 FILLER_32_289
*1393 FILLER_32_29
*1394 FILLER_32_3
*1395 FILLER_32_301
*1396 FILLER_32_307
*1397 FILLER_32_309
*1398 FILLER_32_321
*1399 FILLER_32_333
*1400 FILLER_32_345
*1401 FILLER_32_357
*1402 FILLER_32_363
*1403 FILLER_32_376
*1404 FILLER_32_388
*1405 FILLER_32_400
*1406 FILLER_32_406
*1407 FILLER_32_41
*1408 FILLER_32_63
*1409 FILLER_32_71
*1410 FILLER_32_82
*1411 FILLER_32_94
*1412 FILLER_33_105
*1413 FILLER_33_111
*1414 FILLER_33_113
*1415 FILLER_33_127
*1416 FILLER_33_141
*1417 FILLER_33_15
*1418 FILLER_33_153
*1419 FILLER_33_165
*1420 FILLER_33_179
*1421 FILLER_33_191
*1422 FILLER_33_203
*1423 FILLER_33_215
*1424 FILLER_33_223
*1425 FILLER_33_225
*1426 FILLER_33_237
*1427 FILLER_33_249
*1428 FILLER_33_255
*1429 FILLER_33_267
*1430 FILLER_33_27
*1431 FILLER_33_279
*1432 FILLER_33_281
*1433 FILLER_33_293
*1434 FILLER_33_3
*1435 FILLER_33_305
*1436 FILLER_33_317
*1437 FILLER_33_329
*1438 FILLER_33_335
*1439 FILLER_33_337
*1440 FILLER_33_349
*1441 FILLER_33_361
*1442 FILLER_33_373
*1443 FILLER_33_385
*1444 FILLER_33_39
*1445 FILLER_33_391
*1446 FILLER_33_393
*1447 FILLER_33_405
*1448 FILLER_33_51
*1449 FILLER_33_55
*1450 FILLER_33_66
*1451 FILLER_33_78
*1452 FILLER_33_87
*1453 FILLER_33_93
*1454 FILLER_34_106
*1455 FILLER_34_118
*1456 FILLER_34_137
*1457 FILLER_34_141
*1458 FILLER_34_153
*1459 FILLER_34_172
*1460 FILLER_34_184
*1461 FILLER_34_197
*1462 FILLER_34_209
*1463 FILLER_34_21
*1464 FILLER_34_221
*1465 FILLER_34_233
*1466 FILLER_34_245
*1467 FILLER_34_251
*1468 FILLER_34_253
*1469 FILLER_34_265
*1470 FILLER_34_27
*1471 FILLER_34_277
*1472 FILLER_34_289
*1473 FILLER_34_305
*1474 FILLER_34_316
*1475 FILLER_34_321
*1476 FILLER_34_333
*1477 FILLER_34_345
*1478 FILLER_34_357
*1479 FILLER_34_363
*1480 FILLER_34_365
*1481 FILLER_34_377
*1482 FILLER_34_38
*1483 FILLER_34_389
*1484 FILLER_34_401
*1485 FILLER_34_50
*1486 FILLER_34_62
*1487 FILLER_34_74
*1488 FILLER_34_82
*1489 FILLER_34_9
*1490 FILLER_34_94
*1491 FILLER_35_111
*1492 FILLER_35_113
*1493 FILLER_35_121
*1494 FILLER_35_127
*1495 FILLER_35_139
*1496 FILLER_35_151
*1497 FILLER_35_163
*1498 FILLER_35_167
*1499 FILLER_35_169
*1500 FILLER_35_181
*1501 FILLER_35_202
*1502 FILLER_35_21
*1503 FILLER_35_214
*1504 FILLER_35_222
*1505 FILLER_35_225
*1506 FILLER_35_237
*1507 FILLER_35_245
*1508 FILLER_35_254
*1509 FILLER_35_260
*1510 FILLER_35_279
*1511 FILLER_35_281
*1512 FILLER_35_286
*1513 FILLER_35_298
*1514 FILLER_35_310
*1515 FILLER_35_321
*1516 FILLER_35_33
*1517 FILLER_35_333
*1518 FILLER_35_337
*1519 FILLER_35_349
*1520 FILLER_35_361
*1521 FILLER_35_373
*1522 FILLER_35_385
*1523 FILLER_35_391
*1524 FILLER_35_393
*1525 FILLER_35_405
*1526 FILLER_35_45
*1527 FILLER_35_53
*1528 FILLER_35_63
*1529 FILLER_35_75
*1530 FILLER_35_87
*1531 FILLER_35_9
*1532 FILLER_35_99
*1533 FILLER_36_109
*1534 FILLER_36_121
*1535 FILLER_36_133
*1536 FILLER_36_139
*1537 FILLER_36_141
*1538 FILLER_36_15
*1539 FILLER_36_153
*1540 FILLER_36_165
*1541 FILLER_36_173
*1542 FILLER_36_189
*1543 FILLER_36_195
*1544 FILLER_36_197
*1545 FILLER_36_209
*1546 FILLER_36_224
*1547 FILLER_36_240
*1548 FILLER_36_253
*1549 FILLER_36_265
*1550 FILLER_36_27
*1551 FILLER_36_277
*1552 FILLER_36_289
*1553 FILLER_36_3
*1554 FILLER_36_301
*1555 FILLER_36_307
*1556 FILLER_36_309
*1557 FILLER_36_321
*1558 FILLER_36_33
*1559 FILLER_36_333
*1560 FILLER_36_345
*1561 FILLER_36_357
*1562 FILLER_36_363
*1563 FILLER_36_365
*1564 FILLER_36_377
*1565 FILLER_36_389
*1566 FILLER_36_45
*1567 FILLER_36_57
*1568 FILLER_36_69
*1569 FILLER_36_85
*1570 FILLER_36_97
*1571 FILLER_37_105
*1572 FILLER_37_111
*1573 FILLER_37_113
*1574 FILLER_37_125
*1575 FILLER_37_132
*1576 FILLER_37_144
*1577 FILLER_37_156
*1578 FILLER_37_169
*1579 FILLER_37_18
*1580 FILLER_37_181
*1581 FILLER_37_193
*1582 FILLER_37_205
*1583 FILLER_37_217
*1584 FILLER_37_223
*1585 FILLER_37_225
*1586 FILLER_37_237
*1587 FILLER_37_249
*1588 FILLER_37_261
*1589 FILLER_37_27
*1590 FILLER_37_272
*1591 FILLER_37_281
*1592 FILLER_37_293
*1593 FILLER_37_305
*1594 FILLER_37_317
*1595 FILLER_37_323
*1596 FILLER_37_334
*1597 FILLER_37_337
*1598 FILLER_37_349
*1599 FILLER_37_361
*1600 FILLER_37_373
*1601 FILLER_37_385
*1602 FILLER_37_39
*1603 FILLER_37_391
*1604 FILLER_37_393
*1605 FILLER_37_405
*1606 FILLER_37_51
*1607 FILLER_37_55
*1608 FILLER_37_57
*1609 FILLER_37_6
*1610 FILLER_37_69
*1611 FILLER_37_81
*1612 FILLER_37_93
*1613 FILLER_38_109
*1614 FILLER_38_121
*1615 FILLER_38_127
*1616 FILLER_38_131
*1617 FILLER_38_139
*1618 FILLER_38_141
*1619 FILLER_38_15
*1620 FILLER_38_153
*1621 FILLER_38_165
*1622 FILLER_38_172
*1623 FILLER_38_184
*1624 FILLER_38_197
*1625 FILLER_38_209
*1626 FILLER_38_221
*1627 FILLER_38_233
*1628 FILLER_38_245
*1629 FILLER_38_25
*1630 FILLER_38_251
*1631 FILLER_38_253
*1632 FILLER_38_265
*1633 FILLER_38_275
*1634 FILLER_38_287
*1635 FILLER_38_29
*1636 FILLER_38_299
*1637 FILLER_38_3
*1638 FILLER_38_307
*1639 FILLER_38_309
*1640 FILLER_38_321
*1641 FILLER_38_329
*1642 FILLER_38_340
*1643 FILLER_38_352
*1644 FILLER_38_365
*1645 FILLER_38_377
*1646 FILLER_38_389
*1647 FILLER_38_401
*1648 FILLER_38_41
*1649 FILLER_38_53
*1650 FILLER_38_65
*1651 FILLER_38_77
*1652 FILLER_38_83
*1653 FILLER_38_85
*1654 FILLER_38_97
*1655 FILLER_39_104
*1656 FILLER_39_113
*1657 FILLER_39_121
*1658 FILLER_39_138
*1659 FILLER_39_150
*1660 FILLER_39_162
*1661 FILLER_39_183
*1662 FILLER_39_19
*1663 FILLER_39_195
*1664 FILLER_39_207
*1665 FILLER_39_219
*1666 FILLER_39_223
*1667 FILLER_39_225
*1668 FILLER_39_237
*1669 FILLER_39_249
*1670 FILLER_39_261
*1671 FILLER_39_273
*1672 FILLER_39_279
*1673 FILLER_39_294
*1674 FILLER_39_309
*1675 FILLER_39_31
*1676 FILLER_39_321
*1677 FILLER_39_333
*1678 FILLER_39_357
*1679 FILLER_39_369
*1680 FILLER_39_381
*1681 FILLER_39_389
*1682 FILLER_39_393
*1683 FILLER_39_405
*1684 FILLER_39_43
*1685 FILLER_39_55
*1686 FILLER_39_57
*1687 FILLER_39_63
*1688 FILLER_39_7
*1689 FILLER_39_71
*1690 FILLER_39_83
*1691 FILLER_39_92
*1692 FILLER_3_105
*1693 FILLER_3_111
*1694 FILLER_3_113
*1695 FILLER_3_125
*1696 FILLER_3_137
*1697 FILLER_3_149
*1698 FILLER_3_15
*1699 FILLER_3_161
*1700 FILLER_3_167
*1701 FILLER_3_169
*1702 FILLER_3_181