*SPEF "ieee 1481-1999"
*DESIGN "SARSA_RUIDO_e9_1"
*DATE "09:47:50 Friday September 12, 2025"
*VENDOR "The OpenROAD Project"
*PROGRAM "OpenROAD"
*VERSION "edf00dff99f6c40d67a30c0e22a8191c5d2ed9d6"
*DESIGN_FLOW "NAME_SCOPE LOCAL" "PIN_CAP NONE"
*DIVIDER /
*DELIMITER :
*BUS_DELIMITER []
*T_UNIT 1 NS
*C_UNIT 1 PF
*R_UNIT 1 OHM
*L_UNIT 1 HENRY

*NAME_MAP
*1 A[0]
*2 A[1]
*3 B[0]
*4 B[1]
*5 P[0]
*6 P[1]
*7 P[2]
*8 P[3]
*11 net1
*12 net2
*13 net3
*14 net4
*15 net5
*16 net6
*17 net7
*18 net8
*19 FILLER_0_15
*20 FILLER_0_27
*21 FILLER_0_29
*22 FILLER_0_3
*23 FILLER_0_41
*24 FILLER_0_53
*25 FILLER_0_57
*26 FILLER_0_69
*27 FILLER_1_15
*28 FILLER_1_27
*29 FILLER_1_3
*30 FILLER_1_39
*31 FILLER_1_51
*32 FILLER_1_55
*33 FILLER_1_57
*34 FILLER_1_69
*35 FILLER_2_19
*36 FILLER_2_27
*37 FILLER_2_29
*38 FILLER_2_41
*39 FILLER_2_53
*40 FILLER_2_65
*41 FILLER_2_7
*42 FILLER_2_77
*43 FILLER_3_15
*44 FILLER_3_27
*45 FILLER_3_3
*46 FILLER_3_39
*47 FILLER_3_51
*48 FILLER_3_55
*49 FILLER_3_57
*50 FILLER_3_69
*51 FILLER_4_19
*52 FILLER_4_27
*53 FILLER_4_29
*54 FILLER_4_41
*55 FILLER_4_53
*56 FILLER_4_65
*57 FILLER_4_7
*58 FILLER_4_77
*59 FILLER_5_12
*60 FILLER_5_18
*61 FILLER_5_28
*62 FILLER_5_40
*63 FILLER_5_52
*64 FILLER_5_57
*65 FILLER_5_6
*66 FILLER_5_69
*67 FILLER_6_10
*68 FILLER_6_18
*69 FILLER_6_26
*70 FILLER_6_29
*71 FILLER_6_41
*72 FILLER_6_53
*73 FILLER_6_6
*74 FILLER_6_65
*75 FILLER_7_14
*76 FILLER_7_24
*77 FILLER_7_36
*78 FILLER_7_48
*79 FILLER_7_57
*80 FILLER_7_6
*81 FILLER_7_69
*82 FILLER_8_15
*83 FILLER_8_27
*84 FILLER_8_29
*85 FILLER_8_3
*86 FILLER_8_41
*87 FILLER_8_53
*88 FILLER_8_65
*89 FILLER_8_77
*90 FILLER_9_18
*91 FILLER_9_26
*92 FILLER_9_29
*93 FILLER_9_41
*94 FILLER_9_53
*95 FILLER_9_57
*96 FILLER_9_6
*97 FILLER_9_69
*98 PHY_EDGE_ROW_0_Left_10
*99 PHY_EDGE_ROW_0_Right_0
*100 PHY_EDGE_ROW_1_Left_11
*101 PHY_EDGE_ROW_1_Right_1
*102 PHY_EDGE_ROW_2_Left_12
*103 PHY_EDGE_ROW_2_Right_2
*104 PHY_EDGE_ROW_3_Left_13
*105 PHY_EDGE_ROW_3_Right_3
*106 PHY_EDGE_ROW_4_Left_14
*107 PHY_EDGE_ROW_4_Right_4
*108 PHY_EDGE_ROW_5_Left_15
*109 PHY_EDGE_ROW_5_Right_5
*110 PHY_EDGE_ROW_6_Left_16
*111 PHY_EDGE_ROW_6_Right_6
*112 PHY_EDGE_ROW_7_Left_17
*113 PHY_EDGE_ROW_7_Right_7
*114 PHY_EDGE_ROW_8_Left_18
*115 PHY_EDGE_ROW_8_Right_8
*116 PHY_EDGE_ROW_9_Left_19
*117 PHY_EDGE_ROW_9_Right_9
*118 TAP_TAPCELL_ROW_0_20
*119 TAP_TAPCELL_ROW_0_21
*120 TAP_TAPCELL_ROW_1_22
*121 TAP_TAPCELL_ROW_2_23
*122 TAP_TAPCELL_ROW_3_24
*123 TAP_TAPCELL_ROW_4_25
*124 TAP_TAPCELL_ROW_5_26
*125 TAP_TAPCELL_ROW_6_27
*126 TAP_TAPCELL_ROW_7_28
*127 TAP_TAPCELL_ROW_8_29
*128 TAP_TAPCELL_ROW_9_30
*129 TAP_TAPCELL_ROW_9_31
*130 _0_
*131 _1_
*132 _2_
*133 _3_
*134 input1
*135 input2
*136 input3
*137 input4
*138 output5
*139 output6
*140 output7
*141 output8

*PORTS
A[0] I
A[1] I
B[0] I
B[1] I
P[0] O
P[1] O
P[2] O
P[3] O

*D_NET *1 0.000700907
*CONN
*P A[0] I
*I *134:A I *D sky130_fd_sc_hd__clkbuf_1
*CAP
1 A[0] 0.000306456
2 *134:A 0.000306456
3 *134:A *135:A 0
4 *134:A *137:A 2.87684e-05
5 *134:A *11:12 5.92267e-05
*RES
1 A[0] *134:A 20.2479 
*END

*D_NET *2 0.000534186
*CONN
*P A[1] I
*I *135:A I *D sky130_fd_sc_hd__clkbuf_1
*CAP
1 A[1] 0.000238508
2 *135:A 0.000238508
3 *135:A *136:A 2.87684e-05
4 *135:A *137:A 2.25951e-05
5 *135:A *11:12 5.80706e-06
6 *134:A *135:A 0
*RES
1 A[1] *135:A 18.73 
*END

*D_NET *3 0.000670164
*CONN
*P B[0] I
*I *136:A I *D sky130_fd_sc_hd__clkbuf_1
*CAP
1 B[0] 0.000305702
2 *136:A 0.000305702
3 *136:A P[3] 2.99915e-05
4 *135:A *136:A 2.87684e-05
*RES
1 B[0] *136:A 21.391 
*END

*D_NET *4 0.000576861
*CONN
*P B[1] I
*I *137:A I *D sky130_fd_sc_hd__clkbuf_1
*CAP
1 B[1] 0.000262749
2 *137:A 0.000262749
3 *134:A *137:A 2.87684e-05
4 *135:A *137:A 2.25951e-05
*RES
1 B[1] *137:A 20.4803 
*END

*D_NET *5 0.000712853
*CONN
*P P[0] O
*I *138:X O *D sky130_fd_sc_hd__buf_2
*CAP
1 P[0] 0.000345129
2 *138:X 0.000345129
3 P[0] P[3] 2.25951e-05
*RES
1 *138:X P[0] 20.891 
*END

*D_NET *6 0.000492366
*CONN
*P P[1] O
*I *139:X O *D sky130_fd_sc_hd__buf_2
*CAP
1 P[1] 0.000199745
2 *139:X 0.000199745
3 P[1] P[2] 9.28756e-05
*RES
1 *139:X P[1] 18.1949 
*END

*D_NET *7 0.000567153
*CONN
*P P[2] O
*I *140:X O *D sky130_fd_sc_hd__buf_2
*CAP
1 P[2] 0.000237139
2 *140:X 0.000237139
3 P[1] P[2] 9.28756e-05
*RES
1 *140:X P[2] 18.8021 
*END

*D_NET *8 0.00077794
*CONN
*P P[3] O
*I *141:X O *D sky130_fd_sc_hd__buf_2
*CAP
1 P[3] 0.000362676
2 *141:X 0.000362676
3 P[0] P[3] 2.25951e-05
4 *136:A P[3] 2.99915e-05
*RES
1 *141:X P[3] 21.4981 
*END

*D_NET *11 0.00261489
*CONN
*I *131:D I *D sky130_fd_sc_hd__and4_1
*I *132:B I *D sky130_fd_sc_hd__and3b_1
*I *130:B I *D sky130_fd_sc_hd__and2_1
*I *134:X O *D sky130_fd_sc_hd__clkbuf_1
*CAP
1 *131:D 0
2 *132:B 0.000266065
3 *130:B 7.02142e-05
4 *134:X 0.000520101
5 *11:14 0.000336279
6 *11:12 0.000520101
7 *130:B *131:B 6.97972e-05
8 *130:B *132:A_N 4.56437e-05
9 *130:B *141:A 0.000129868
10 *132:B *131:A 0
11 *132:B *132:A_N 0.000206563
12 *132:B *14:21 5.80205e-05
13 *11:12 *131:A 0
14 *11:12 *133:B 5.52238e-05
15 *11:12 *12:10 0.000271983
16 *134:A *11:12 5.92267e-05
17 *135:A *11:12 5.80706e-06
*RES
1 *134:X *11:12 29.3357 
2 *11:12 *11:14 4.5 
3 *11:14 *130:B 16.05 
4 *11:14 *132:B 18.3357 
5 *11:12 *131:D 9.3 
*END

*D_NET *12 0.00183622
*CONN
*I *133:B I *D sky130_fd_sc_hd__and3b_1
*I *131:C I *D sky130_fd_sc_hd__and4_1
*I *135:X O *D sky130_fd_sc_hd__clkbuf_1
*CAP
1 *133:B 0.000461505
2 *131:C 0
3 *135:X 0.000265387
4 *12:10 0.000726893
5 *133:B *133:C 0
6 *133:B *141:A 0
7 *133:B *18:8 5.52302e-05
8 *11:12 *133:B 5.52238e-05
9 *11:12 *12:10 0.000271983
*RES
1 *135:X *12:10 13.675 
2 *12:10 *131:C 9.3 
3 *12:10 *133:B 25.8 
*END

*D_NET *13 0.000747187
*CONN
*I *130:A I *D sky130_fd_sc_hd__and2_1
*I *131:B I *D sky130_fd_sc_hd__and4_1
*I *136:X O *D sky130_fd_sc_hd__clkbuf_1
*CAP
1 *130:A 0
2 *131:B 9.03008e-05
3 *136:X 0.000243375
4 *13:8 0.000333676
5 *131:B *141:A 1.00375e-05
6 *130:B *131:B 6.97972e-05
*RES
1 *136:X *13:8 13.1393 
2 *13:8 *131:B 20.2464 
3 *13:8 *130:A 9.3 
*END

*D_NET *14 0.00223631
*CONN
*I *132:C I *D sky130_fd_sc_hd__and3b_1
*I *133:C I *D sky130_fd_sc_hd__and3b_1
*I *131:A I *D sky130_fd_sc_hd__and4_1
*I *137:X O *D sky130_fd_sc_hd__clkbuf_1
*CAP
1 *132:C 0
2 *133:C 0.000437768
3 *131:A 8.8395e-05
4 *137:X 0.000227738
5 *14:21 0.000762573
6 *14:6 0.000640938
7 *133:C *132:A_N 0
8 *133:C *133:A_N 1.58213e-06
9 *133:C *141:A 0
10 *14:21 *132:A_N 1.92905e-05
11 *132:B *131:A 0
12 *132:B *14:21 5.80205e-05
13 *133:B *133:C 0
14 *11:12 *131:A 0
*RES
1 *137:X *14:6 11.8893 
2 *14:6 *131:A 19.6393 
3 *14:6 *14:21 5.57143 
4 *14:21 *133:C 24.7464 
5 *14:21 *132:C 9.3 
*END

*D_NET *15 0.00175614
*CONN
*I *133:A_N I *D sky130_fd_sc_hd__and3b_1
*I *138:A I *D sky130_fd_sc_hd__buf_2
*I *130:X O *D sky130_fd_sc_hd__and2_1
*CAP
1 *133:A_N 0.000177373
2 *138:A 0.000623381
3 *130:X 0
4 *15:4 0.000800753
5 *138:A *141:A 0.000153054
6 *133:C *133:A_N 1.58213e-06
*RES
1 *130:X *15:4 9.3 
2 *15:4 *138:A 29.7464 
3 *15:4 *133:A_N 11.4964 
*END

*D_NET *16 0.00407499
*CONN
*I *139:A I *D sky130_fd_sc_hd__buf_2
*I *132:X O *D sky130_fd_sc_hd__and3b_1
*CAP
1 *139:A 0
2 *132:X 0.0020375
3 *16:12 0.0020375
*RES
1 *132:X *16:12 42.55 
2 *16:12 *139:A 9.3 
*END

*D_NET *17 0.00335257
*CONN
*I *140:A I *D sky130_fd_sc_hd__buf_2
*I *133:X O *D sky130_fd_sc_hd__and3b_1
*CAP
1 *140:A 0.00167628
2 *133:X 0.00167628
*RES
1 *133:X *140:A 40.1179 
*END

*D_NET *18 0.0018582
*CONN
*I *132:A_N I *D sky130_fd_sc_hd__and3b_1
*I *141:A I *D sky130_fd_sc_hd__buf_2
*I *131:X O *D sky130_fd_sc_hd__and4_1
*CAP
1 *132:A_N 0.000144531
2 *141:A 0.000435504
3 *131:X 3.92213e-05
4 *18:8 0.000619257
5 *130:B *132:A_N 4.56437e-05
6 *130:B *141:A 0.000129868
7 *131:B *141:A 1.00375e-05
8 *132:B *132:A_N 0.000206563
9 *133:B *141:A 0
10 *133:B *18:8 5.52302e-05
11 *133:C *132:A_N 0
12 *133:C *141:A 0
13 *138:A *141:A 0.000153054
14 *14:21 *132:A_N 1.92905e-05
*RES
1 *131:X *18:8 14.3357 
2 *18:8 *141:A 22.4071 
3 *18:8 *132:A_N 17.1929 
*END
