*SPEF "ieee 1481-1999"
*DESIGN "mult8_2bits_2op_e2493"
*DATE "12:31:45 Wednesday September 17, 2025"
*VENDOR "The OpenROAD Project"
*PROGRAM "OpenROAD"
*VERSION "edf00dff99f6c40d67a30c0e22a8191c5d2ed9d6"
*DESIGN_FLOW "NAME_SCOPE LOCAL" "PIN_CAP NONE"
*DIVIDER /
*DELIMITER :
*BUS_DELIMITER []
*T_UNIT 1 NS
*C_UNIT 1 PF
*R_UNIT 1 OHM
*L_UNIT 1 HENRY

*NAME_MAP
*1 A[0]
*2 A[1]
*3 A[2]
*4 A[3]
*5 A[4]
*6 A[5]
*7 A[6]
*8 A[7]
*9 B[0]
*10 B[1]
*11 B[2]
*12 B[3]
*13 B[4]
*14 B[5]
*15 B[6]
*16 B[7]
*17 net50
*18 P[10]
*19 P[11]
*20 P[12]
*21 P[13]
*22 P[14]
*23 P[15]
*24 P[1]
*25 P[2]
*26 P[3]
*27 P[4]
*28 P[5]
*29 P[6]
*30 P[7]
*31 P[8]
*32 P[9]
*35 _000_
*36 _001_
*37 _002_
*38 _003_
*39 _004_
*40 _005_
*41 _006_
*42 _007_
*43 _008_
*44 _009_
*45 _010_
*46 _011_
*47 _012_
*48 _013_
*49 _014_
*50 _015_
*51 _016_
*52 _017_
*53 _018_
*54 _019_
*55 _020_
*56 _021_
*57 _022_
*58 _023_
*59 _024_
*60 _025_
*61 _026_
*62 _027_
*63 _028_
*64 _029_
*65 _030_
*66 _031_
*67 _032_
*68 _033_
*69 _034_
*70 _035_
*71 _036_
*72 _037_
*73 _038_
*74 _039_
*75 _040_
*76 _041_
*77 _042_
*78 _043_
*79 _044_
*80 _045_
*81 _046_
*82 _047_
*83 _048_
*84 _049_
*85 _050_
*86 _051_
*87 _052_
*88 _053_
*89 _054_
*90 _055_
*91 _056_
*92 _057_
*93 _058_
*94 _059_
*95 _060_
*96 _061_
*97 _062_
*98 _063_
*99 _064_
*100 _065_
*101 _066_
*102 _067_
*103 _068_
*104 _069_
*105 _070_
*106 _071_
*107 _072_
*108 _073_
*109 _074_
*110 _075_
*111 _076_
*112 _077_
*113 _078_
*114 _079_
*115 _080_
*116 _081_
*117 _082_
*118 _083_
*119 _084_
*120 _085_
*121 _086_
*122 _087_
*123 _088_
*124 _089_
*125 _090_
*126 _091_
*127 _092_
*128 _093_
*129 _094_
*130 _095_
*131 _096_
*132 _097_
*133 _098_
*134 _099_
*135 _100_
*136 _101_
*137 _102_
*138 _103_
*139 _104_
*140 _105_
*141 _106_
*142 _107_
*143 _108_
*144 _109_
*145 _110_
*146 _111_
*147 _112_
*148 _113_
*149 _114_
*150 _115_
*151 _116_
*152 _117_
*153 _118_
*154 _119_
*155 _120_
*156 _121_
*157 _122_
*158 _123_
*159 _124_
*160 _125_
*161 _126_
*162 _127_
*163 _128_
*164 _129_
*165 _130_
*166 _131_
*167 _132_
*168 _133_
*169 _134_
*170 _135_
*171 _136_
*172 _137_
*173 _138_
*174 _139_
*175 _140_
*176 _141_
*177 _142_
*178 _143_
*179 _144_
*180 _145_
*181 _146_
*182 _147_
*183 _148_
*184 _149_
*185 _150_
*186 _151_
*187 _152_
*188 _153_
*189 _154_
*190 _155_
*191 _156_
*192 _157_
*193 _158_
*194 _159_
*195 _160_
*196 _161_
*197 _162_
*198 _163_
*199 _164_
*200 _165_
*201 _166_
*202 _167_
*203 _168_
*204 _169_
*205 _170_
*206 _171_
*207 _172_
*208 _173_
*209 _174_
*210 _175_
*211 _176_
*212 _177_
*213 _178_
*214 _179_
*215 _180_
*216 _181_
*217 _182_
*218 _183_
*219 _184_
*220 _185_
*221 _186_
*222 _187_
*223 _188_
*224 _189_
*225 _190_
*226 _191_
*227 _192_
*228 _193_
*229 _194_
*230 _195_
*231 _196_
*232 _197_
*233 _198_
*234 _199_
*235 _200_
*236 _201_
*237 _202_
*238 _203_
*239 _204_
*240 _205_
*241 _206_
*242 _207_
*243 _208_
*244 _209_
*245 _210_
*246 _211_
*247 _212_
*248 _213_
*249 _214_
*250 _215_
*251 _216_
*252 _217_
*253 _218_
*254 _219_
*255 _220_
*256 _221_
*257 _222_
*258 _223_
*259 _224_
*260 _225_
*261 _226_
*262 _227_
*263 _228_
*264 _229_
*265 _230_
*266 _231_
*267 _232_
*268 _233_
*269 _234_
*270 _235_
*271 _236_
*272 _237_
*273 _238_
*274 _239_
*275 _240_
*276 _241_
*277 _242_
*278 _243_
*279 _244_
*280 _245_
*281 _246_
*282 _247_
*283 _248_
*284 _249_
*285 _250_
*286 _251_
*287 _252_
*288 _253_
*289 _254_
*290 _255_
*291 _256_
*292 _257_
*293 _258_
*294 _259_
*295 _260_
*296 _261_
*297 _262_
*298 _263_
*299 _264_
*300 _265_
*301 _266_
*302 _267_
*303 _268_
*304 _269_
*305 _270_
*306 _271_
*307 _272_
*308 _273_
*309 _274_
*310 _275_
*311 _276_
*312 net1
*313 net10
*314 net11
*315 net12
*316 net13
*317 net14
*318 net15
*319 net16
*320 net17
*321 net18
*322 net19
*323 net2
*324 net20
*325 net21
*326 net22
*327 net23
*328 net24
*329 net25
*330 net26
*331 net27
*332 net28
*333 net29
*334 net3
*335 net30
*336 net31
*337 net32
*338 net33
*339 net34
*340 net35
*341 net36
*342 net37
*343 net38
*344 net39
*345 net4
*346 net40
*347 net41
*348 net42
*349 net43
*350 net44
*351 net45
*352 net46
*353 net47
*354 net48
*355 net49
*356 net5
*357 net51
*358 net52
*359 net53
*360 net54
*361 net55
*362 net56
*363 net57
*364 net58
*365 net59
*366 net6
*367 net60
*368 net61
*369 net62
*370 net63
*371 net64
*372 net65
*373 net68
*374 net69
*375 net7
*376 net8
*377 net9
*378 FILLER_0_109
*379 FILLER_0_113
*380 FILLER_0_125
*381 FILLER_0_137
*382 FILLER_0_141
*383 FILLER_0_15
*384 FILLER_0_153
*385 FILLER_0_165
*386 FILLER_0_169
*387 FILLER_0_181
*388 FILLER_0_189
*389 FILLER_0_195
*390 FILLER_0_197
*391 FILLER_0_217
*392 FILLER_0_223
*393 FILLER_0_225
*394 FILLER_0_237
*395 FILLER_0_249
*396 FILLER_0_253
*397 FILLER_0_259
*398 FILLER_0_27
*399 FILLER_0_271
*400 FILLER_0_279
*401 FILLER_0_281
*402 FILLER_0_289
*403 FILLER_0_29
*404 FILLER_0_296
*405 FILLER_0_3
*406 FILLER_0_309
*407 FILLER_0_321
*408 FILLER_0_333
*409 FILLER_0_337
*410 FILLER_0_349
*411 FILLER_0_361
*412 FILLER_0_365
*413 FILLER_0_377
*414 FILLER_0_389
*415 FILLER_0_393
*416 FILLER_0_405
*417 FILLER_0_41
*418 FILLER_0_53
*419 FILLER_0_57
*420 FILLER_0_69
*421 FILLER_0_81
*422 FILLER_0_85
*423 FILLER_0_97
*424 FILLER_10_109
*425 FILLER_10_121
*426 FILLER_10_133
*427 FILLER_10_139
*428 FILLER_10_141
*429 FILLER_10_15
*430 FILLER_10_153
*431 FILLER_10_165
*432 FILLER_10_177
*433 FILLER_10_189
*434 FILLER_10_195
*435 FILLER_10_197
*436 FILLER_10_209
*437 FILLER_10_221
*438 FILLER_10_233
*439 FILLER_10_245
*440 FILLER_10_251
*441 FILLER_10_253
*442 FILLER_10_265
*443 FILLER_10_27
*444 FILLER_10_277
*445 FILLER_10_289
*446 FILLER_10_29
*447 FILLER_10_3
*448 FILLER_10_301
*449 FILLER_10_307
*450 FILLER_10_309
*451 FILLER_10_321
*452 FILLER_10_333
*453 FILLER_10_345
*454 FILLER_10_357
*455 FILLER_10_363
*456 FILLER_10_365
*457 FILLER_10_377
*458 FILLER_10_389
*459 FILLER_10_401
*460 FILLER_10_41
*461 FILLER_10_53
*462 FILLER_10_65
*463 FILLER_10_77
*464 FILLER_10_83
*465 FILLER_10_85
*466 FILLER_10_97
*467 FILLER_11_105
*468 FILLER_11_111
*469 FILLER_11_113
*470 FILLER_11_125
*471 FILLER_11_137
*472 FILLER_11_149
*473 FILLER_11_15
*474 FILLER_11_161
*475 FILLER_11_167
*476 FILLER_11_169
*477 FILLER_11_181
*478 FILLER_11_193
*479 FILLER_11_205
*480 FILLER_11_217
*481 FILLER_11_223
*482 FILLER_11_225
*483 FILLER_11_237
*484 FILLER_11_249
*485 FILLER_11_261
*486 FILLER_11_27
*487 FILLER_11_273
*488 FILLER_11_279
*489 FILLER_11_281
*490 FILLER_11_293
*491 FILLER_11_3
*492 FILLER_11_305
*493 FILLER_11_317
*494 FILLER_11_329
*495 FILLER_11_335
*496 FILLER_11_337
*497 FILLER_11_349
*498 FILLER_11_361
*499 FILLER_11_373
*500 FILLER_11_385
*501 FILLER_11_39
*502 FILLER_11_391
*503 FILLER_11_393
*504 FILLER_11_405
*505 FILLER_11_51
*506 FILLER_11_55
*507 FILLER_11_57
*508 FILLER_11_69
*509 FILLER_11_81
*510 FILLER_11_93
*511 FILLER_12_109
*512 FILLER_12_121
*513 FILLER_12_133
*514 FILLER_12_139
*515 FILLER_12_141
*516 FILLER_12_15
*517 FILLER_12_153
*518 FILLER_12_165
*519 FILLER_12_177
*520 FILLER_12_189
*521 FILLER_12_195
*522 FILLER_12_197
*523 FILLER_12_209
*524 FILLER_12_221
*525 FILLER_12_233
*526 FILLER_12_245
*527 FILLER_12_251
*528 FILLER_12_253
*529 FILLER_12_265
*530 FILLER_12_27
*531 FILLER_12_277
*532 FILLER_12_289
*533 FILLER_12_29
*534 FILLER_12_3
*535 FILLER_12_301
*536 FILLER_12_307
*537 FILLER_12_309
*538 FILLER_12_321
*539 FILLER_12_333
*540 FILLER_12_345
*541 FILLER_12_357
*542 FILLER_12_363
*543 FILLER_12_365
*544 FILLER_12_377
*545 FILLER_12_389
*546 FILLER_12_401
*547 FILLER_12_41
*548 FILLER_12_53
*549 FILLER_12_65
*550 FILLER_12_77
*551 FILLER_12_83
*552 FILLER_12_85
*553 FILLER_12_97
*554 FILLER_13_105
*555 FILLER_13_111
*556 FILLER_13_113
*557 FILLER_13_125
*558 FILLER_13_137
*559 FILLER_13_149
*560 FILLER_13_15
*561 FILLER_13_161
*562 FILLER_13_167
*563 FILLER_13_169
*564 FILLER_13_181
*565 FILLER_13_193
*566 FILLER_13_205
*567 FILLER_13_217
*568 FILLER_13_223
*569 FILLER_13_225
*570 FILLER_13_237
*571 FILLER_13_249
*572 FILLER_13_261
*573 FILLER_13_27
*574 FILLER_13_273
*575 FILLER_13_279
*576 FILLER_13_281
*577 FILLER_13_293
*578 FILLER_13_3
*579 FILLER_13_305
*580 FILLER_13_317
*581 FILLER_13_329
*582 FILLER_13_335
*583 FILLER_13_337
*584 FILLER_13_349
*585 FILLER_13_361
*586 FILLER_13_373
*587 FILLER_13_385
*588 FILLER_13_39
*589 FILLER_13_391
*590 FILLER_13_393
*591 FILLER_13_405
*592 FILLER_13_51
*593 FILLER_13_55
*594 FILLER_13_57
*595 FILLER_13_69
*596 FILLER_13_81
*597 FILLER_13_93
*598 FILLER_14_109
*599 FILLER_14_121
*600 FILLER_14_133
*601 FILLER_14_139
*602 FILLER_14_141
*603 FILLER_14_15
*604 FILLER_14_153
*605 FILLER_14_165
*606 FILLER_14_177
*607 FILLER_14_189
*608 FILLER_14_195
*609 FILLER_14_197
*610 FILLER_14_209
*611 FILLER_14_221
*612 FILLER_14_233
*613 FILLER_14_245
*614 FILLER_14_251
*615 FILLER_14_253
*616 FILLER_14_265
*617 FILLER_14_27
*618 FILLER_14_277
*619 FILLER_14_289
*620 FILLER_14_29
*621 FILLER_14_3
*622 FILLER_14_301
*623 FILLER_14_307
*624 FILLER_14_309
*625 FILLER_14_321
*626 FILLER_14_333
*627 FILLER_14_345
*628 FILLER_14_357
*629 FILLER_14_363
*630 FILLER_14_365
*631 FILLER_14_377
*632 FILLER_14_389
*633 FILLER_14_401
*634 FILLER_14_41
*635 FILLER_14_53
*636 FILLER_14_65
*637 FILLER_14_77
*638 FILLER_14_83
*639 FILLER_14_85
*640 FILLER_14_97
*641 FILLER_15_105
*642 FILLER_15_111
*643 FILLER_15_113
*644 FILLER_15_125
*645 FILLER_15_137
*646 FILLER_15_149
*647 FILLER_15_15
*648 FILLER_15_161
*649 FILLER_15_167
*650 FILLER_15_169
*651 FILLER_15_181
*652 FILLER_15_193
*653 FILLER_15_205
*654 FILLER_15_217
*655 FILLER_15_223
*656 FILLER_15_225
*657 FILLER_15_237
*658 FILLER_15_249
*659 FILLER_15_261
*660 FILLER_15_27
*661 FILLER_15_273
*662 FILLER_15_279
*663 FILLER_15_281
*664 FILLER_15_293
*665 FILLER_15_3
*666 FILLER_15_305
*667 FILLER_15_317
*668 FILLER_15_329
*669 FILLER_15_335
*670 FILLER_15_337
*671 FILLER_15_349
*672 FILLER_15_361
*673 FILLER_15_373
*674 FILLER_15_385
*675 FILLER_15_39
*676 FILLER_15_391
*677 FILLER_15_393
*678 FILLER_15_405
*679 FILLER_15_51
*680 FILLER_15_55
*681 FILLER_15_57
*682 FILLER_15_69
*683 FILLER_15_81
*684 FILLER_15_93
*685 FILLER_16_109
*686 FILLER_16_121
*687 FILLER_16_133
*688 FILLER_16_139
*689 FILLER_16_141
*690 FILLER_16_153
*691 FILLER_16_165
*692 FILLER_16_177
*693 FILLER_16_189
*694 FILLER_16_19
*695 FILLER_16_195
*696 FILLER_16_200
*697 FILLER_16_212
*698 FILLER_16_224
*699 FILLER_16_236
*700 FILLER_16_248
*701 FILLER_16_253
*702 FILLER_16_265
*703 FILLER_16_27
*704 FILLER_16_277
*705 FILLER_16_289
*706 FILLER_16_29
*707 FILLER_16_301
*708 FILLER_16_307
*709 FILLER_16_309
*710 FILLER_16_321
*711 FILLER_16_333
*712 FILLER_16_345
*713 FILLER_16_357
*714 FILLER_16_363
*715 FILLER_16_365
*716 FILLER_16_377
*717 FILLER_16_389
*718 FILLER_16_401
*719 FILLER_16_41
*720 FILLER_16_53
*721 FILLER_16_65
*722 FILLER_16_7
*723 FILLER_16_77
*724 FILLER_16_83
*725 FILLER_16_85
*726 FILLER_16_97
*727 FILLER_17_105
*728 FILLER_17_111
*729 FILLER_17_113
*730 FILLER_17_125
*731 FILLER_17_137
*732 FILLER_17_149
*733 FILLER_17_15
*734 FILLER_17_161
*735 FILLER_17_167
*736 FILLER_17_176
*737 FILLER_17_185
*738 FILLER_17_197
*739 FILLER_17_209
*740 FILLER_17_221
*741 FILLER_17_225
*742 FILLER_17_231
*743 FILLER_17_239
*744 FILLER_17_251
*745 FILLER_17_263
*746 FILLER_17_27
*747 FILLER_17_275
*748 FILLER_17_279
*749 FILLER_17_281
*750 FILLER_17_293
*751 FILLER_17_3
*752 FILLER_17_305
*753 FILLER_17_317
*754 FILLER_17_329
*755 FILLER_17_335
*756 FILLER_17_337
*757 FILLER_17_349
*758 FILLER_17_361
*759 FILLER_17_373
*760 FILLER_17_385
*761 FILLER_17_39
*762 FILLER_17_391
*763 FILLER_17_393
*764 FILLER_17_405
*765 FILLER_17_51
*766 FILLER_17_55
*767 FILLER_17_57
*768 FILLER_17_69
*769 FILLER_17_81
*770 FILLER_17_93
*771 FILLER_18_109
*772 FILLER_18_121
*773 FILLER_18_133
*774 FILLER_18_139
*775 FILLER_18_141
*776 FILLER_18_15
*777 FILLER_18_153
*778 FILLER_18_165
*779 FILLER_18_177
*780 FILLER_18_183
*781 FILLER_18_195
*782 FILLER_18_197
*783 FILLER_18_209
*784 FILLER_18_221
*785 FILLER_18_233
*786 FILLER_18_245
*787 FILLER_18_251
*788 FILLER_18_253
*789 FILLER_18_265
*790 FILLER_18_27
*791 FILLER_18_277
*792 FILLER_18_289
*793 FILLER_18_29
*794 FILLER_18_3
*795 FILLER_18_301
*796 FILLER_18_307
*797 FILLER_18_309
*798 FILLER_18_321
*799 FILLER_18_333
*800 FILLER_18_345
*801 FILLER_18_357
*802 FILLER_18_363
*803 FILLER_18_365
*804 FILLER_18_377
*805 FILLER_18_389
*806 FILLER_18_401
*807 FILLER_18_41
*808 FILLER_18_53
*809 FILLER_18_65
*810 FILLER_18_77
*811 FILLER_18_83
*812 FILLER_18_85
*813 FILLER_18_97
*814 FILLER_19_105
*815 FILLER_19_111
*816 FILLER_19_113
*817 FILLER_19_125
*818 FILLER_19_137
*819 FILLER_19_143
*820 FILLER_19_148
*821 FILLER_19_15
*822 FILLER_19_156
*823 FILLER_19_164
*824 FILLER_19_169
*825 FILLER_19_181
*826 FILLER_19_193
*827 FILLER_19_205
*828 FILLER_19_237
*829 FILLER_19_249
*830 FILLER_19_261
*831 FILLER_19_27
*832 FILLER_19_273
*833 FILLER_19_279
*834 FILLER_19_281
*835 FILLER_19_293
*836 FILLER_19_3
*837 FILLER_19_305
*838 FILLER_19_317
*839 FILLER_19_329
*840 FILLER_19_335
*841 FILLER_19_337
*842 FILLER_19_349
*843 FILLER_19_361
*844 FILLER_19_373
*845 FILLER_19_385
*846 FILLER_19_39
*847 FILLER_19_391
*848 FILLER_19_393
*849 FILLER_19_405
*850 FILLER_19_51
*851 FILLER_19_55
*852 FILLER_19_57
*853 FILLER_19_69
*854 FILLER_19_81
*855 FILLER_19_93
*856 FILLER_1_105
*857 FILLER_1_111
*858 FILLER_1_113
*859 FILLER_1_125
*860 FILLER_1_137
*861 FILLER_1_149
*862 FILLER_1_15
*863 FILLER_1_161
*864 FILLER_1_167
*865 FILLER_1_169
*866 FILLER_1_181
*867 FILLER_1_193
*868 FILLER_1_205
*869 FILLER_1_217
*870 FILLER_1_223
*871 FILLER_1_225
*872 FILLER_1_237
*873 FILLER_1_249
*874 FILLER_1_261
*875 FILLER_1_27
*876 FILLER_1_273
*877 FILLER_1_279
*878 FILLER_1_281
*879 FILLER_1_293
*880 FILLER_1_3
*881 FILLER_1_305
*882 FILLER_1_317
*883 FILLER_1_329
*884 FILLER_1_335
*885 FILLER_1_337
*886 FILLER_1_349
*887 FILLER_1_361
*888 FILLER_1_373
*889 FILLER_1_385
*890 FILLER_1_39
*891 FILLER_1_391
*892 FILLER_1_393
*893 FILLER_1_405
*894 FILLER_1_51
*895 FILLER_1_55
*896 FILLER_1_57
*897 FILLER_1_69
*898 FILLER_1_81
*899 FILLER_1_93
*900 FILLER_20_111
*901 FILLER_20_117
*902 FILLER_20_125
*903 FILLER_20_137
*904 FILLER_20_148
*905 FILLER_20_15
*906 FILLER_20_160
*907 FILLER_20_172
*908 FILLER_20_184
*909 FILLER_20_188
*910 FILLER_20_194
*911 FILLER_20_197
*912 FILLER_20_209
*913 FILLER_20_221
*914 FILLER_20_233
*915 FILLER_20_245
*916 FILLER_20_251
*917 FILLER_20_253
*918 FILLER_20_261
*919 FILLER_20_27
*920 FILLER_20_271
*921 FILLER_20_283
*922 FILLER_20_29
*923 FILLER_20_295
*924 FILLER_20_3
*925 FILLER_20_307
*926 FILLER_20_309
*927 FILLER_20_321
*928 FILLER_20_333
*929 FILLER_20_345
*930 FILLER_20_357
*931 FILLER_20_363
*932 FILLER_20_365
*933 FILLER_20_377
*934 FILLER_20_389
*935 FILLER_20_401
*936 FILLER_20_41
*937 FILLER_20_48
*938 FILLER_20_60
*939 FILLER_20_72
*940 FILLER_20_85
*941 FILLER_20_93
*942 FILLER_21_105
*943 FILLER_21_111
*944 FILLER_21_113
*945 FILLER_21_125
*946 FILLER_21_137
*947 FILLER_21_149
*948 FILLER_21_15
*949 FILLER_21_161
*950 FILLER_21_167
*951 FILLER_21_169
*952 FILLER_21_181
*953 FILLER_21_214
*954 FILLER_21_222
*955 FILLER_21_225
*956 FILLER_21_237
*957 FILLER_21_249
*958 FILLER_21_253
*959 FILLER_21_265
*960 FILLER_21_27
*961 FILLER_21_277
*962 FILLER_21_281
*963 FILLER_21_293
*964 FILLER_21_3
*965 FILLER_21_305
*966 FILLER_21_317
*967 FILLER_21_329
*968 FILLER_21_335
*969 FILLER_21_337
*970 FILLER_21_349
*971 FILLER_21_361
*972 FILLER_21_373
*973 FILLER_21_385
*974 FILLER_21_39
*975 FILLER_21_391
*976 FILLER_21_393
*977 FILLER_21_405
*978 FILLER_21_51
*979 FILLER_21_55
*980 FILLER_21_57
*981 FILLER_21_69
*982 FILLER_21_81
*983 FILLER_21_93
*984 FILLER_22_110
*985 FILLER_22_138
*986 FILLER_22_141
*987 FILLER_22_149
*988 FILLER_22_15
*989 FILLER_22_157
*990 FILLER_22_169
*991 FILLER_22_181
*992 FILLER_22_189
*993 FILLER_22_195
*994 FILLER_22_197
*995 FILLER_22_209
*996 FILLER_22_221
*997 FILLER_22_233
*998 FILLER_22_245
*999 FILLER_22_251
*1000 FILLER_22_27
*1001 FILLER_22_275
*1002 FILLER_22_287
*1003 FILLER_22_29
*1004 FILLER_22_299
*1005 FILLER_22_3
*1006 FILLER_22_307
*1007 FILLER_22_309
*1008 FILLER_22_321
*1009 FILLER_22_333
*1010 FILLER_22_345
*1011 FILLER_22_357
*1012 FILLER_22_363
*1013 FILLER_22_365
*1014 FILLER_22_37
*1015 FILLER_22_377
*1016 FILLER_22_389
*1017 FILLER_22_43
*1018 FILLER_22_55
*1019 FILLER_22_67
*1020 FILLER_22_79
*1021 FILLER_22_83
*1022 FILLER_22_85
*1023 FILLER_23_109
*1024 FILLER_23_113
*1025 FILLER_23_125
*1026 FILLER_23_137
*1027 FILLER_23_149
*1028 FILLER_23_15
*1029 FILLER_23_164
*1030 FILLER_23_169
*1031 FILLER_23_181
*1032 FILLER_23_187
*1033 FILLER_23_193
*1034 FILLER_23_207
*1035 FILLER_23_219
*1036 FILLER_23_223
*1037 FILLER_23_225
*1038 FILLER_23_237
*1039 FILLER_23_249
*1040 FILLER_23_261
*1041 FILLER_23_27
*1042 FILLER_23_273
*1043 FILLER_23_279
*1044 FILLER_23_281
*1045 FILLER_23_293
*1046 FILLER_23_3
*1047 FILLER_23_305
*1048 FILLER_23_317
*1049 FILLER_23_329
*1050 FILLER_23_335
*1051 FILLER_23_337
*1052 FILLER_23_349
*1053 FILLER_23_361
*1054 FILLER_23_373
*1055 FILLER_23_385
*1056 FILLER_23_39
*1057 FILLER_23_391
*1058 FILLER_23_393
*1059 FILLER_23_405
*1060 FILLER_23_51
*1061 FILLER_23_55
*1062 FILLER_23_57
*1063 FILLER_23_69
*1064 FILLER_23_79
*1065 FILLER_23_91
*1066 FILLER_23_95
*1067 FILLER_24_101
*1068 FILLER_24_109
*1069 FILLER_24_115
*1070 FILLER_24_127
*1071 FILLER_24_139
*1072 FILLER_24_141
*1073 FILLER_24_149
*1074 FILLER_24_169
*1075 FILLER_24_181
*1076 FILLER_24_193
*1077 FILLER_24_197
*1078 FILLER_24_209
*1079 FILLER_24_22
*1080 FILLER_24_221
*1081 FILLER_24_233
*1082 FILLER_24_245
*1083 FILLER_24_251
*1084 FILLER_24_253
*1085 FILLER_24_265
*1086 FILLER_24_277
*1087 FILLER_24_281
*1088 FILLER_24_289
*1089 FILLER_24_301
*1090 FILLER_24_307
*1091 FILLER_24_309
*1092 FILLER_24_321
*1093 FILLER_24_333
*1094 FILLER_24_345
*1095 FILLER_24_357
*1096 FILLER_24_363
*1097 FILLER_24_365
*1098 FILLER_24_37
*1099 FILLER_24_377
*1100 FILLER_24_389
*1101 FILLER_24_401
*1102 FILLER_24_55
*1103 FILLER_24_6
*1104 FILLER_24_67
*1105 FILLER_24_79
*1106 FILLER_24_83
*1107 FILLER_24_85
*1108 FILLER_25_102
*1109 FILLER_25_110
*1110 FILLER_25_113
*1111 FILLER_25_125
*1112 FILLER_25_137
*1113 FILLER_25_149
*1114 FILLER_25_161
*1115 FILLER_25_167
*1116 FILLER_25_169
*1117 FILLER_25_181
*1118 FILLER_25_196
*1119 FILLER_25_208
*1120 FILLER_25_220
*1121 FILLER_25_225
*1122 FILLER_25_237
*1123 FILLER_25_246
*1124 FILLER_25_258
*1125 FILLER_25_270
*1126 FILLER_25_278
*1127 FILLER_25_281
*1128 FILLER_25_29
*1129 FILLER_25_293
*1130 FILLER_25_305
*1131 FILLER_25_317
*1132 FILLER_25_329
*1133 FILLER_25_335
*1134 FILLER_25_337
*1135 FILLER_25_349
*1136 FILLER_25_35
*1137 FILLER_25_361
*1138 FILLER_25_373
*1139 FILLER_25_385
*1140 FILLER_25_391
*1141 FILLER_25_393
*1142 FILLER_25_397
*1143 FILLER_25_53
*1144 FILLER_25_57
*1145 FILLER_25_69
*1146 FILLER_25_7
*1147 FILLER_25_79
*1148 FILLER_25_91
*1149 FILLER_25_97
*1150 FILLER_26_109
*1151 FILLER_26_12
*1152 FILLER_26_121
*1153 FILLER_26_133
*1154 FILLER_26_139
*1155 FILLER_26_141
*1156 FILLER_26_153
*1157 FILLER_26_165
*1158 FILLER_26_177
*1159 FILLER_26_183
*1160 FILLER_26_191
*1161 FILLER_26_195
*1162 FILLER_26_204
*1163 FILLER_26_216
*1164 FILLER_26_228
*1165 FILLER_26_24
*1166 FILLER_26_240
*1167 FILLER_26_253
*1168 FILLER_26_265
*1169 FILLER_26_277
*1170 FILLER_26_289
*1171 FILLER_26_29
*1172 FILLER_26_301
*1173 FILLER_26_307
*1174 FILLER_26_309
*1175 FILLER_26_321
*1176 FILLER_26_333
*1177 FILLER_26_345
*1178 FILLER_26_357
*1179 FILLER_26_363
*1180 FILLER_26_365
*1181 FILLER_26_377
*1182 FILLER_26_389
*1183 FILLER_26_401
*1184 FILLER_26_53
*1185 FILLER_26_65
*1186 FILLER_26_77
*1187 FILLER_26_83
*1188 FILLER_26_85
*1189 FILLER_26_97
*1190 FILLER_27_104
*1191 FILLER_27_113
*1192 FILLER_27_125
*1193 FILLER_27_137
*1194 FILLER_27_14
*1195 FILLER_27_149
*1196 FILLER_27_157
*1197 FILLER_27_177
*1198 FILLER_27_189
*1199 FILLER_27_201
*1200 FILLER_27_213
*1201 FILLER_27_220
*1202 FILLER_27_225
*1203 FILLER_27_229
*1204 FILLER_27_242
*1205 FILLER_27_250
*1206 FILLER_27_262
*1207 FILLER_27_270
*1208 FILLER_27_287
*1209 FILLER_27_29
*1210 FILLER_27_301
*1211 FILLER_27_313
*1212 FILLER_27_325
*1213 FILLER_27_333
*1214 FILLER_27_337
*1215 FILLER_27_349
*1216 FILLER_27_35
*1217 FILLER_27_361
*1218 FILLER_27_373
*1219 FILLER_27_385
*1220 FILLER_27_39
*1221 FILLER_27_391
*1222 FILLER_27_393
*1223 FILLER_27_405
*1224 FILLER_27_47
*1225 FILLER_27_55
*1226 FILLER_27_57
*1227 FILLER_27_6
*1228 FILLER_27_69
*1229 FILLER_27_81
*1230 FILLER_27_89
*1231 FILLER_28_105
*1232 FILLER_28_11
*1233 FILLER_28_114
*1234 FILLER_28_126
*1235 FILLER_28_134
*1236 FILLER_28_138
*1237 FILLER_28_148
*1238 FILLER_28_160
*1239 FILLER_28_178
*1240 FILLER_28_185
*1241 FILLER_28_193
*1242 FILLER_28_197
*1243 FILLER_28_209
*1244 FILLER_28_218
*1245 FILLER_28_222
*1246 FILLER_28_226
*1247 FILLER_28_234
*1248 FILLER_28_241
*1249 FILLER_28_249
*1250 FILLER_28_253
*1251 FILLER_28_261
*1252 FILLER_28_27
*1253 FILLER_28_272
*1254 FILLER_28_298
*1255 FILLER_28_3
*1256 FILLER_28_306
*1257 FILLER_28_309
*1258 FILLER_28_321
*1259 FILLER_28_33
*1260 FILLER_28_333
*1261 FILLER_28_345
*1262 FILLER_28_357
*1263 FILLER_28_363
*1264 FILLER_28_365
*1265 FILLER_28_37
*1266 FILLER_28_377
*1267 FILLER_28_389
*1268 FILLER_28_401
*1269 FILLER_28_48
*1270 FILLER_28_60
*1271 FILLER_28_72
*1272 FILLER_28_85
*1273 FILLER_28_97
*1274 FILLER_29_104
*1275 FILLER_29_113
*1276 FILLER_29_125
*1277 FILLER_29_137
*1278 FILLER_29_145
*1279 FILLER_29_153
*1280 FILLER_29_165
*1281 FILLER_29_169
*1282 FILLER_29_181
*1283 FILLER_29_189
*1284 FILLER_29_19
*1285 FILLER_29_193
*1286 FILLER_29_205
*1287 FILLER_29_217
*1288 FILLER_29_223
*1289 FILLER_29_225
*1290 FILLER_29_237
*1291 FILLER_29_249
*1292 FILLER_29_26
*1293 FILLER_29_261
*1294 FILLER_29_273
*1295 FILLER_29_279
*1296 FILLER_29_281
*1297 FILLER_29_285
*1298 FILLER_29_297
*1299 FILLER_29_309
*1300 FILLER_29_321
*1301 FILLER_29_333
*1302 FILLER_29_337
*1303 FILLER_29_349
*1304 FILLER_29_361
*1305 FILLER_29_373
*1306 FILLER_29_38
*1307 FILLER_29_385
*1308 FILLER_29_391
*1309 FILLER_29_393
*1310 FILLER_29_405
*1311 FILLER_29_49
*1312 FILLER_29_55
*1313 FILLER_29_57
*1314 FILLER_29_69
*1315 FILLER_29_7
*1316 FILLER_29_81
*1317 FILLER_29_93
*1318 FILLER_2_109
*1319 FILLER_2_121
*1320 FILLER_2_133
*1321 FILLER_2_139
*1322 FILLER_2_141
*1323 FILLER_2_15
*1324 FILLER_2_153
*1325 FILLER_2_165
*1326 FILLER_2_177
*1327 FILLER_2_189
*1328 FILLER_2_195
*1329 FILLER_2_197
*1330 FILLER_2_209
*1331 FILLER_2_221
*1332 FILLER_2_233
*1333 FILLER_2_245
*1334 FILLER_2_251
*1335 FILLER_2_253
*1336 FILLER_2_265
*1337 FILLER_2_27
*1338 FILLER_2_277
*1339 FILLER_2_289
*1340 FILLER_2_29
*1341 FILLER_2_3
*1342 FILLER_2_301
*1343 FILLER_2_307
*1344 FILLER_2_309
*1345 FILLER_2_321
*1346 FILLER_2_333
*1347 FILLER_2_345
*1348 FILLER_2_357
*1349 FILLER_2_363
*1350 FILLER_2_365
*1351 FILLER_2_377
*1352 FILLER_2_389
*1353 FILLER_2_401
*1354 FILLER_2_41
*1355 FILLER_2_53
*1356 FILLER_2_65
*1357 FILLER_2_77
*1358 FILLER_2_83
*1359 FILLER_2_85
*1360 FILLER_2_97
*1361 FILLER_30_101
*1362 FILLER_30_110
*1363 FILLER_30_122
*1364 FILLER_30_134
*1365 FILLER_30_141
*1366 FILLER_30_153
*1367 FILLER_30_165
*1368 FILLER_30_177
*1369 FILLER_30_189
*1370 FILLER_30_195
*1371 FILLER_30_197
*1372 FILLER_30_209
*1373 FILLER_30_21
*1374 FILLER_30_221
*1375 FILLER_30_233
*1376 FILLER_30_245
*1377 FILLER_30_251
*1378 FILLER_30_253
*1379 FILLER_30_265
*1380 FILLER_30_27
*1381 FILLER_30_277
*1382 FILLER_30_289
*1383 FILLER_30_29
*1384 FILLER_30_301
*1385 FILLER_30_307
*1386 FILLER_30_309
*1387 FILLER_30_321
*1388 FILLER_30_333
*1389 FILLER_30_345
*1390 FILLER_30_357
*1391 FILLER_30_363
*1392 FILLER_30_365
*1393 FILLER_30_37
*1394 FILLER_30_377
*1395 FILLER_30_389
*1396 FILLER_30_401
*1397 FILLER_30_49
*1398 FILLER_30_61
*1399 FILLER_30_79
*1400 FILLER_30_83
*1401 FILLER_30_85
*1402 FILLER_30_9
*1403 FILLER_30_93
*1404 FILLER_31_111
*1405 FILLER_31_126
*1406 FILLER_31_138
*1407 FILLER_31_142
*1408 FILLER_31_15
*1409 FILLER_31_156
*1410 FILLER_31_169
*1411 FILLER_31_181
*1412 FILLER_31_193
*1413 FILLER_31_212
*1414 FILLER_31_225
*1415 FILLER_31_237
*1416 FILLER_31_249
*1417 FILLER_31_261
*1418 FILLER_31_27
*1419 FILLER_31_273
*1420 FILLER_31_279
*1421 FILLER_31_286
*1422 FILLER_31_298
*1423 FILLER_31_3
*1424 FILLER_31_310
*1425 FILLER_31_322
*1426 FILLER_31_334
*1427 FILLER_31_337
*1428 FILLER_31_349
*1429 FILLER_31_35
*1430 FILLER_31_361
*1431 FILLER_31_373
*1432 FILLER_31_385
*1433 FILLER_31_391
*1434 FILLER_31_393
*1435 FILLER_31_405
*1436 FILLER_31_41
*1437 FILLER_31_52
*1438 FILLER_31_57
*1439 FILLER_31_61
*1440 FILLER_31_78
*1441 FILLER_31_84
*1442 FILLER_31_96
*1443 FILLER_32_111
*1444 FILLER_32_123
*1445 FILLER_32_135
*1446 FILLER_32_139
*1447 FILLER_32_141
*1448 FILLER_32_149
*1449 FILLER_32_161
*1450 FILLER_32_173
*1451 FILLER_32_185
*1452 FILLER_32_193
*1453 FILLER_32_210
*1454 FILLER_32_222
*1455 FILLER_32_226
*1456 FILLER_32_235
*1457 FILLER_32_247
*1458 FILLER_32_25
*1459 FILLER_32_251
*1460 FILLER_32_253
*1461 FILLER_32_265
*1462 FILLER_32_277
*1463 FILLER_32_289
*1464 FILLER_32_3
*1465 FILLER_32_301
*1466 FILLER_32_307
*1467 FILLER_32_309
*1468 FILLER_32_321
*1469 FILLER_32_333
*1470 FILLER_32_34
*1471 FILLER_32_345
*1472 FILLER_32_357
*1473 FILLER_32_363
*1474 FILLER_32_365
*1475 FILLER_32_377
*1476 FILLER_32_389
*1477 FILLER_32_401
*1478 FILLER_32_46
*1479 FILLER_32_50
*1480 FILLER_32_57
*1481 FILLER_32_66
*1482 FILLER_32_78
*1483 FILLER_32_85
*1484 FILLER_32_97
*1485 FILLER_33_105
*1486 FILLER_33_111
*1487 FILLER_33_113
*1488 FILLER_33_125
*1489 FILLER_33_137
*1490 FILLER_33_149
*1491 FILLER_33_161
*1492 FILLER_33_167
*1493 FILLER_33_172
*1494 FILLER_33_184
*1495 FILLER_33_196
*1496 FILLER_33_208
*1497 FILLER_33_21
*1498 FILLER_33_220
*1499 FILLER_33_225
*1500 FILLER_33_240
*1501 FILLER_33_252
*1502 FILLER_33_268
*1503 FILLER_33_281
*1504 FILLER_33_293
*1505 FILLER_33_3
*1506 FILLER_33_305
*1507 FILLER_33_317
*1508 FILLER_33_329
*1509 FILLER_33_33
*1510 FILLER_33_335
*1511 FILLER_33_337
*1512 FILLER_33_349
*1513 FILLER_33_361
*1514 FILLER_33_373
*1515 FILLER_33_385
*1516 FILLER_33_391
*1517 FILLER_33_393
*1518 FILLER_33_405
*1519 FILLER_33_45
*1520 FILLER_33_53
*1521 FILLER_33_57
*1522 FILLER_33_69
*1523 FILLER_33_81
*1524 FILLER_33_93
*1525 FILLER_34_109
*1526 FILLER_34_121
*1527 FILLER_34_133
*1528 FILLER_34_139
*1529 FILLER_34_141
*1530 FILLER_34_15
*1531 FILLER_34_154
*1532 FILLER_34_168
*1533 FILLER_34_180
*1534 FILLER_34_192
*1535 FILLER_34_197
*1536 FILLER_34_209
*1537 FILLER_34_221
*1538 FILLER_34_233
*1539 FILLER_34_245
*1540 FILLER_34_258
*1541 FILLER_34_27
*1542 FILLER_34_270
*1543 FILLER_34_282
*1544 FILLER_34_29
*1545 FILLER_34_294
*1546 FILLER_34_3
*1547 FILLER_34_306
*1548 FILLER_34_309
*1549 FILLER_34_321
*1550 FILLER_34_333
*1551 FILLER_34_345
*1552 FILLER_34_357
*1553 FILLER_34_363
*1554 FILLER_34_365
*1555 FILLER_34_377
*1556 FILLER_34_389
*1557 FILLER_34_401
*1558 FILLER_34_41
*1559 FILLER_34_53
*1560 FILLER_34_65
*1561 FILLER_34_77
*1562 FILLER_34_83
*1563 FILLER_34_85
*1564 FILLER_34_97
*1565 FILLER_35_105
*1566 FILLER_35_111
*1567 FILLER_35_113
*1568 FILLER_35_125
*1569 FILLER_35_137
*1570 FILLER_35_145
*1571 FILLER_35_15
*1572 FILLER_35_153
*1573 FILLER_35_160
*1574 FILLER_35_169
*1575 FILLER_35_186
*1576 FILLER_35_195
*1577 FILLER_35_207
*1578 FILLER_35_219
*1579 FILLER_35_223
*1580 FILLER_35_225
*1581 FILLER_35_237
*1582 FILLER_35_249
*1583 FILLER_35_261
*1584 FILLER_35_27
*1585 FILLER_35_273
*1586 FILLER_35_279
*1587 FILLER_35_281
*1588 FILLER_35_293
*1589 FILLER_35_3
*1590 FILLER_35_305
*1591 FILLER_35_317
*1592 FILLER_35_329
*1593 FILLER_35_335
*1594 FILLER_35_337
*1595 FILLER_35_349
*1596 FILLER_35_361
*1597 FILLER_35_373
*1598 FILLER_35_385
*1599 FILLER_35_39
*1600 FILLER_35_391
*1601 FILLER_35_393
*1602 FILLER_35_405
*1603 FILLER_35_51
*1604 FILLER_35_55
*1605 FILLER_35_57
*1606 FILLER_35_69
*1607 FILLER_35_81
*1608 FILLER_35_93
*1609 FILLER_36_109
*1610 FILLER_36_121
*1611 FILLER_36_133
*1612 FILLER_36_139
*1613 FILLER_36_141
*1614 FILLER_36_15
*1615 FILLER_36_153
*1616 FILLER_36_165
*1617 FILLER_36_177
*1618 FILLER_36_193
*1619 FILLER_36_197
*1620 FILLER_36_207
*1621 FILLER_36_216
*1622 FILLER_36_228
*1623 FILLER_36_240
*1624 FILLER_36_253
*1625 FILLER_36_265
*1626 FILLER_36_27
*1627 FILLER_36_277
*1628 FILLER_36_289
*1629 FILLER_36_29
*1630 FILLER_36_3
*1631 FILLER_36_301
*1632 FILLER_36_307
*1633 FILLER_36_309
*1634 FILLER_36_321
*1635 FILLER_36_333
*1636 FILLER_36_345
*1637 FILLER_36_357
*1638 FILLER_36_363
*1639 FILLER_36_365
*1640 FILLER_36_377
*1641 FILLER_36_389
*1642 FILLER_36_401
*1643 FILLER_36_41
*1644 FILLER_36_50
*1645 FILLER_36_62
*1646 FILLER_36_74
*1647 FILLER_36_82
*1648 FILLER_36_85
*1649 FILLER_36_97
*1650 FILLER_37_104
*1651 FILLER_37_110
*1652 FILLER_37_113
*1653 FILLER_37_124
*1654 FILLER_37_136
*1655 FILLER_37_148
*1656 FILLER_37_160
*1657 FILLER_37_169
*1658 FILLER_37_181
*1659 FILLER_37_19
*1660 FILLER_37_193
*1661 FILLER_37_205
*1662 FILLER_37_217
*1663 FILLER_37_223
*1664 FILLER_37_230
*1665 FILLER_37_243
*1666 FILLER_37_255
*1667 FILLER_37_267
*1668 FILLER_37_279
*1669 FILLER_37_281
*1670 FILLER_37_293
*1671 FILLER_37_305
*1672 FILLER_37_31
*1673 FILLER_37_317
*1674 FILLER_37_329
*1675 FILLER_37_335
*1676 FILLER_37_337
*1677 FILLER_37_349
*1678 FILLER_37_361
*1679 FILLER_37_37
*1680 FILLER_37_373
*1681 FILLER_37_385
*1682 FILLER_37_391
*1683 FILLER_37_393
*1684 FILLER_37_405
*1685 FILLER_37_54
*1686 FILLER_37_57
*1687 FILLER_37_69
*1688 FILLER_37_7
*1689 FILLER_37_81
*1690 FILLER_37_89
*1691 FILLER_38_104
*1692 FILLER_38_108
*1693 FILLER_38_11
*1694 FILLER_38_120
*1695 FILLER_38_132
*1696 FILLER_38_141
*1697 FILLER_38_153
*1698 FILLER_38_165
*1699 FILLER_38_177
*1700 FILLER_38_189
*1701 FILLER_38_195
*1702 FILLER_38_201
*1703 FILLER_38_213
*1704 FILLER_38_225
*1705 FILLER_38_237
*1706 FILLER_38_249
*1707 FILLER_38_26
*1708 FILLER_38_260
*1709 FILLER_38_268
*1710 FILLER_38_275
*1711 FILLER_38_287
*1712 FILLER_38_299
*1713 FILLER_38_3
*1714 FILLER_38_307
*1715 FILLER_38_309