*SPEF "ieee 1481-1999"
*DESIGN "SarsaNada_e8"
*DATE "10:01:54 Friday September 12, 2025"
*VENDOR "The OpenROAD Project"
*PROGRAM "OpenROAD"
*VERSION "edf00dff99f6c40d67a30c0e22a8191c5d2ed9d6"
*DESIGN_FLOW "NAME_SCOPE LOCAL" "PIN_CAP NONE"
*DIVIDER /
*DELIMITER :
*BUS_DELIMITER []
*T_UNIT 1 NS
*C_UNIT 1 PF
*R_UNIT 1 OHM
*L_UNIT 1 HENRY

*NAME_MAP
*1 A[0]
*2 A[1]
*3 B[0]
*4 B[1]
*5 P[0]
*6 P[1]
*7 P[2]
*8 P[3]
*11 _0_
*12 _1_
*13 net1
*14 net2
*15 net3
*16 net4
*17 net5
*18 net6
*19 net7
*20 net8
*21 FILLER_0_15
*22 FILLER_0_27
*23 FILLER_0_29
*24 FILLER_0_3
*25 FILLER_0_41
*26 FILLER_0_53
*27 FILLER_0_57
*28 FILLER_0_69
*29 FILLER_1_15
*30 FILLER_1_27
*31 FILLER_1_3
*32 FILLER_1_39
*33 FILLER_1_51
*34 FILLER_1_55
*35 FILLER_1_57
*36 FILLER_1_69
*37 FILLER_2_15
*38 FILLER_2_27
*39 FILLER_2_29
*40 FILLER_2_3
*41 FILLER_2_41
*42 FILLER_2_53
*43 FILLER_2_65
*44 FILLER_2_77
*45 FILLER_3_15
*46 FILLER_3_27
*47 FILLER_3_3
*48 FILLER_3_39
*49 FILLER_3_51
*50 FILLER_3_55
*51 FILLER_3_57
*52 FILLER_3_69
*53 FILLER_4_14
*54 FILLER_4_20
*55 FILLER_4_29
*56 FILLER_4_41
*57 FILLER_4_53
*58 FILLER_4_6
*59 FILLER_4_65
*60 FILLER_5_26
*61 FILLER_5_30
*62 FILLER_5_42
*63 FILLER_5_54
*64 FILLER_5_57
*65 FILLER_5_6
*66 FILLER_5_69
*67 FILLER_6_18
*68 FILLER_6_26
*69 FILLER_6_29
*70 FILLER_6_41
*71 FILLER_6_53
*72 FILLER_6_6
*73 FILLER_6_65
*74 FILLER_6_70
*75 FILLER_6_76
*76 FILLER_7_18
*77 FILLER_7_30
*78 FILLER_7_42
*79 FILLER_7_54
*80 FILLER_7_57
*81 FILLER_7_6
*82 FILLER_7_69
*83 FILLER_8_15
*84 FILLER_8_27
*85 FILLER_8_29
*86 FILLER_8_3
*87 FILLER_8_41
*88 FILLER_8_53
*89 FILLER_8_65
*90 FILLER_8_77
*91 FILLER_9_15
*92 FILLER_9_27
*93 FILLER_9_29
*94 FILLER_9_3
*95 FILLER_9_41
*96 FILLER_9_53
*97 FILLER_9_57
*98 FILLER_9_69
*99 PHY_EDGE_ROW_0_Left_10
*100 PHY_EDGE_ROW_0_Right_0
*101 PHY_EDGE_ROW_1_Left_11
*102 PHY_EDGE_ROW_1_Right_1
*103 PHY_EDGE_ROW_2_Left_12
*104 PHY_EDGE_ROW_2_Right_2
*105 PHY_EDGE_ROW_3_Left_13
*106 PHY_EDGE_ROW_3_Right_3
*107 PHY_EDGE_ROW_4_Left_14
*108 PHY_EDGE_ROW_4_Right_4
*109 PHY_EDGE_ROW_5_Left_15
*110 PHY_EDGE_ROW_5_Right_5
*111 PHY_EDGE_ROW_6_Left_16
*112 PHY_EDGE_ROW_6_Right_6
*113 PHY_EDGE_ROW_7_Left_17
*114 PHY_EDGE_ROW_7_Right_7
*115 PHY_EDGE_ROW_8_Left_18
*116 PHY_EDGE_ROW_8_Right_8
*117 PHY_EDGE_ROW_9_Left_19
*118 PHY_EDGE_ROW_9_Right_9
*119 TAP_TAPCELL_ROW_0_20
*120 TAP_TAPCELL_ROW_0_21
*121 TAP_TAPCELL_ROW_1_22
*122 TAP_TAPCELL_ROW_2_23
*123 TAP_TAPCELL_ROW_3_24
*124 TAP_TAPCELL_ROW_4_25
*125 TAP_TAPCELL_ROW_5_26
*126 TAP_TAPCELL_ROW_6_27
*127 TAP_TAPCELL_ROW_7_28
*128 TAP_TAPCELL_ROW_8_29
*129 TAP_TAPCELL_ROW_9_30
*130 TAP_TAPCELL_ROW_9_31
*131 _2_
*132 _3_
*133 _4_
*134 _5_
*135 _6_
*136 _7_
*137 input1
*138 input2
*139 input3
*140 input4
*141 output5
*142 output6
*143 output7
*144 output8

*PORTS
A[0] I
A[1] I
B[0] I
B[1] I
P[0] O
P[1] O
P[2] O
P[3] O

*D_NET *1 0.000733319
*CONN
*P A[0] I
*I *137:A I *D sky130_fd_sc_hd__buf_1
*CAP
1 A[0] 0.000352215
2 *137:A 0
3 *1:17 0.000352215
4 *1:17 *3:17 2.88889e-05
*RES
1 A[0] *1:17 28.2148 
2 *1:17 *137:A 23 
*END

*D_NET *2 0.000616196
*CONN
*P A[1] I
*I *138:A I *D sky130_fd_sc_hd__clkbuf_1
*CAP
1 A[1] 0.000297475
2 *138:A 0.000297475
3 *138:A *140:A 2.12457e-05
*RES
1 A[1] *138:A 49.8062 
*END

*D_NET *3 0.00071699
*CONN
*P B[0] I
*I *139:A I *D sky130_fd_sc_hd__clkbuf_1
*CAP
1 B[0] 0.000330094
2 *139:A 0
3 *3:17 0.000330094
4 *3:17 *140:A 2.79122e-05
5 *1:17 *3:17 2.88889e-05
*RES
1 B[0] *3:17 27.8627 
2 *3:17 *139:A 23 
*END

*D_NET *4 0.000586117
*CONN
*P B[1] I
*I *140:A I *D sky130_fd_sc_hd__clkbuf_1
*CAP
1 B[1] 0.000263547
2 *140:A 0.000263547
3 *140:A *14:10 0
4 *140:A *16:8 9.86551e-06
5 *138:A *140:A 2.12457e-05
6 *3:17 *140:A 2.79122e-05
*RES
1 B[1] *140:A 47.7832 
*END

*D_NET *5 0.000511635
*CONN
*P P[0] O
*I *141:X O *D sky130_fd_sc_hd__buf_2
*CAP
1 P[0] 0.000216228
2 *141:X 0.000216228
3 P[0] P[2] 7.91783e-05
4 P[0] *17:8 0
*RES
1 *141:X P[0] 47.1648 
*END

*D_NET *6 0.000620784
*CONN
*P P[1] O
*I *142:X O *D sky130_fd_sc_hd__buf_2
*CAP
1 P[1] 0.0002207
2 *142:X 0.0002207
3 P[1] P[2] 8.73764e-05
4 P[1] P[3] 8.73764e-05
5 P[1] *19:12 4.6318e-06
*RES
1 *142:X P[1] 47.8691 
*END

*D_NET *7 0.000524117
*CONN
*P P[2] O
*I *143:X O *D sky130_fd_sc_hd__buf_2
*CAP
1 P[2] 0.00017241
2 *143:X 0.00017241
3 P[2] *19:12 1.27424e-05
4 P[0] P[2] 7.91783e-05
5 P[1] P[2] 8.73764e-05
*RES
1 *143:X P[2] 47.1648 
*END

*D_NET *8 0.000673721
*CONN
*P P[3] O
*I *144:X O *D sky130_fd_sc_hd__buf_2
*CAP
1 P[3] 0.000293173
2 *144:X 0.000293173
3 P[1] P[3] 8.73764e-05
*RES
1 *144:X P[3] 48.5734 
*END

*D_NET *11 0.000548469
*CONN
*I *135:A1 I *D sky130_fd_sc_hd__o211a_1
*I *131:Y O *D sky130_fd_sc_hd__inv_2
*CAP
1 *135:A1 4.41724e-05
2 *131:Y 4.41724e-05
3 *135:A1 *131:A 0.000172726
4 *135:A1 *134:A 0.000269742
5 *135:A1 *20:12 1.76557e-05
*RES
1 *131:Y *135:A1 49.0243 
*END

*D_NET *12 0.00137451
*CONN
*I *134:A I *D sky130_fd_sc_hd__nor2_1
*I *135:A2 I *D sky130_fd_sc_hd__o211a_1
*I *132:Y O *D sky130_fd_sc_hd__inv_2
*CAP
1 *134:A 0.000323229
2 *135:A2 0
3 *132:Y 0.000167884
4 *12:10 0.000323229
5 *12:8 0.000167884
6 *134:A *131:A 9.8971e-06
7 *134:A *135:B1 6.68617e-05
8 *134:A *20:12 4.57885e-05
9 *12:8 *13:21 0
10 *135:A1 *134:A 0.000269742
*RES
1 *132:Y *12:8 40.2579 
2 *12:8 *12:10 15 
3 *12:10 *135:A2 23 
4 *12:10 *134:A 29.1314 
*END

*D_NET *13 0.00120624
*CONN
*I *133:D I *D sky130_fd_sc_hd__and4_1
*I *132:A I *D sky130_fd_sc_hd__inv_2
*I *137:X O *D sky130_fd_sc_hd__buf_1
*CAP
1 *133:D 0
2 *132:A 0.000190543
3 *137:X 0.000259709
4 *13:21 0.00015287
5 *13:6 0.000603122
6 *12:8 *13:21 0
*RES
1 *137:X *13:6 26.48 
2 *13:6 *132:A 26.7286 
3 *13:6 *13:21 32.2579 
4 *13:21 *133:D 23 
*END

*D_NET *14 0.00161589
*CONN
*I *135:B1 I *D sky130_fd_sc_hd__o211a_1
*I *133:C I *D sky130_fd_sc_hd__and4_1
*I *138:X O *D sky130_fd_sc_hd__clkbuf_1
*CAP
1 *135:B1 0.000197116
2 *133:C 0
3 *138:X 0.000460415
4 *14:12 0.000197116
5 *14:10 0.000460415
6 *135:B1 *131:A 2.65879e-05
7 *135:B1 *135:C1 0.000207381
8 *14:10 *16:8 0
9 *134:A *135:B1 6.68617e-05
10 *140:A *14:10 0
*RES
1 *138:X *14:10 45.0221 
2 *14:10 *14:12 15 
3 *14:12 *133:C 23 
4 *14:12 *135:B1 26.8529 
*END

*D_NET *15 0.00158926
*CONN
*I *133:B I *D sky130_fd_sc_hd__and4_1
*I *131:A I *D sky130_fd_sc_hd__inv_2
*I *139:X O *D sky130_fd_sc_hd__clkbuf_1
*CAP
1 *133:B 0
2 *131:A 0.000242883
3 *139:X 0.000114316
4 *15:8 0.000357199
5 *131:A *135:C1 8.2832e-05
6 *131:A *20:12 0.000352215
7 *15:8 *135:C1 8.6949e-05
8 *15:8 *16:12 0.000143655
9 *134:A *131:A 9.8971e-06
10 *135:A1 *131:A 0.000172726
11 *135:B1 *131:A 2.65879e-05
*RES
1 *139:X *15:8 26.3764 
2 *15:8 *131:A 31.1821 
3 *15:8 *133:B 23 
*END

*D_NET *16 0.00108052
*CONN
*I *135:C1 I *D sky130_fd_sc_hd__o211a_1
*I *133:A I *D sky130_fd_sc_hd__and4_1
*I *140:X O *D sky130_fd_sc_hd__clkbuf_1
*CAP
1 *135:C1 0.000114349
2 *133:A 0
3 *140:X 9.43773e-05
4 *16:12 0.000180544
5 *16:8 0.000160572
6 *131:A *135:C1 8.2832e-05
7 *135:B1 *135:C1 0.000207381
8 *140:A *16:8 9.86551e-06
9 *14:10 *16:8 0
10 *15:8 *135:C1 8.6949e-05
11 *15:8 *16:12 0.000143655
*RES
1 *140:X *16:8 39.5536 
2 *16:8 *16:12 16.5743 
3 *16:12 *133:A 23 
4 *16:12 *135:C1 26.9771 
*END

*D_NET *17 0.000696354
*CONN
*I *141:A I *D sky130_fd_sc_hd__buf_2
*I *136:X O *D sky130_fd_sc_hd__clkbuf_1
*CAP
1 *141:A 0.000221948
2 *136:X 0.000126229
3 *17:8 0.000348177
4 P[0] *17:8 0
*RES
1 *136:X *17:8 40.2579 
2 *17:8 *141:A 41.9564 
*END

*D_NET *18 0.00385789
*CONN
*I *142:A I *D sky130_fd_sc_hd__buf_2
*I *134:Y O *D sky130_fd_sc_hd__nor2_1
*CAP
1 *142:A 0
2 *134:Y 0.00101872
3 *18:8 0.00101872
4 *18:8 *19:6 0.000127725
5 *18:8 *20:12 1.76557e-05
6 *18:8 *20:21 0.00167506
*RES
1 *134:Y *18:8 46.9871 
2 *18:8 *142:A 23 
*END

*D_NET *19 0.00490321
*CONN
*I *143:A I *D sky130_fd_sc_hd__buf_2
*I *135:X O *D sky130_fd_sc_hd__o211a_1
*CAP
1 *143:A 0
2 *135:X 0.00166634
3 *19:12 0.000233028
4 *19:6 0.00189937
5 *19:6 *20:12 0.000317553
6 *19:6 *20:21 0.000641823
7 *19:12 *136:A 0
8 *19:12 *144:A 0
9 P[1] *19:12 4.6318e-06
10 P[2] *19:12 1.27424e-05
11 *18:8 *19:6 0.000127725
*RES
1 *135:X *19:6 49.3486 
2 *19:6 *19:12 33.6664 
3 *19:12 *143:A 23 
*END

*D_NET *20 0.00559327
*CONN
*I *136:A I *D sky130_fd_sc_hd__clkbuf_1
*I *144:A I *D sky130_fd_sc_hd__buf_2
*I *134:B I *D sky130_fd_sc_hd__nor2_1
*I *133:X O *D sky130_fd_sc_hd__and4_1
*CAP
1 *136:A 0.000151734
2 *144:A 0.000458625
3 *134:B 0
4 *133:X 0.000342382
5 *20:21 0.000920381
6 *20:12 0.000652403
7 *131:A *20:12 0.000352215
8 *134:A *20:12 4.57885e-05
9 *135:A1 *20:12 1.76557e-05
10 *18:8 *20:12 1.76557e-05
11 *18:8 *20:21 0.00167506
12 *19:6 *20:12 0.000317553
13 *19:6 *20:21 0.000641823
14 *19:12 *136:A 0
15 *19:12 *144:A 0
*RES
1 *133:X *20:12 31.7829 
2 *20:12 *134:B 23 
3 *20:12 *20:21 33.2493 
4 *20:21 *144:A 46.2236 
5 *20:21 *136:A 40.61 
*END
