*SPEF "ieee 1481-1999"
*DESIGN "mult4_SARSA_RUIDO_e9_SARSA_RUIDO_e9_SarsaNada_e6_SARSA_RUIDO_e9"
*DATE "18:39:42 Tuesday September 16, 2025"
*VENDOR "The OpenROAD Project"
*PROGRAM "OpenROAD"
*VERSION "edf00dff99f6c40d67a30c0e22a8191c5d2ed9d6"
*DESIGN_FLOW "NAME_SCOPE LOCAL" "PIN_CAP NONE"
*DIVIDER /
*DELIMITER :
*BUS_DELIMITER []
*T_UNIT 1 NS
*C_UNIT 1 PF
*R_UNIT 1 OHM
*L_UNIT 1 HENRY

*NAME_MAP
*1 A[0]
*2 A[1]
*3 A[2]
*4 A[3]
*5 B[0]
*6 B[1]
*7 B[2]
*8 B[3]
*9 P[0]
*10 P[1]
*11 P[2]
*12 P[3]
*13 P[4]
*14 P[5]
*15 P[6]
*16 P[7]
*19 _000_
*20 _001_
*21 _002_
*22 _003_
*23 _004_
*24 _005_
*25 _006_
*26 _007_
*27 _008_
*28 _009_
*29 _010_
*30 _011_
*31 _012_
*32 _013_
*33 _014_
*34 _015_
*35 _016_
*36 _017_
*37 _018_
*38 _019_
*39 _020_
*40 _021_
*41 _022_
*42 _023_
*43 _024_
*44 _025_
*45 _026_
*46 _027_
*47 _028_
*48 _029_
*49 _030_
*50 _031_
*51 _032_
*52 _033_
*53 _034_
*54 _035_
*55 _036_
*56 _037_
*57 _038_
*58 _039_
*59 _040_
*60 _041_
*61 _042_
*62 _043_
*63 _044_
*64 _045_
*65 _046_
*66 _047_
*67 net1
*68 net10
*69 net11
*70 net12
*71 net13
*72 net14
*73 net15
*74 net16
*75 net17
*76 net2
*77 net3
*78 net4
*79 net5
*80 net6
*81 net7
*82 net8
*83 net9
*84 FILLER_0_15
*85 FILLER_0_23
*86 FILLER_0_29
*87 FILLER_0_3
*88 FILLER_0_34
*89 FILLER_0_57
*90 FILLER_0_72
*91 FILLER_0_80
*92 FILLER_1_11
*93 FILLER_1_20
*94 FILLER_1_26
*95 FILLER_1_3
*96 FILLER_1_44
*97 FILLER_1_64
*98 FILLER_1_76
*99 FILLER_2_21
*100 FILLER_2_27
*101 FILLER_2_29
*102 FILLER_2_3
*103 FILLER_2_41
*104 FILLER_2_53
*105 FILLER_2_68
*106 FILLER_2_9
*107 FILLER_3_11
*108 FILLER_3_23
*109 FILLER_3_3
*110 FILLER_3_55
*111 FILLER_3_70
*112 FILLER_3_78
*113 FILLER_4_15
*114 FILLER_4_27
*115 FILLER_4_29
*116 FILLER_4_3
*117 FILLER_4_44
*118 FILLER_4_56
*119 FILLER_5_15
*120 FILLER_5_27
*121 FILLER_5_3
*122 FILLER_5_39
*123 FILLER_5_54
*124 FILLER_5_57
*125 FILLER_5_65
*126 FILLER_6_25
*127 FILLER_6_3
*128 FILLER_6_43
*129 FILLER_6_55
*130 FILLER_6_66
*131 FILLER_6_75
*132 FILLER_6_9
*133 FILLER_7_15
*134 FILLER_7_27
*135 FILLER_7_3
*136 FILLER_7_33
*137 FILLER_7_45
*138 FILLER_7_55
*139 FILLER_7_60
*140 FILLER_7_66
*141 FILLER_7_78
*142 FILLER_7_9
*143 FILLER_8_11
*144 FILLER_8_16
*145 FILLER_8_25
*146 FILLER_8_3
*147 FILLER_8_44
*148 FILLER_8_56
*149 FILLER_8_63
*150 FILLER_8_69
*151 FILLER_8_77
*152 FILLER_9_19
*153 FILLER_9_23
*154 FILLER_9_32
*155 FILLER_9_44
*156 FILLER_9_48
*157 FILLER_9_7
*158 FILLER_9_70
*159 FILLER_9_78
*160 PHY_EDGE_ROW_0_Left_10
*161 PHY_EDGE_ROW_0_Right_0
*162 PHY_EDGE_ROW_1_Left_11
*163 PHY_EDGE_ROW_1_Right_1
*164 PHY_EDGE_ROW_2_Left_12
*165 PHY_EDGE_ROW_2_Right_2
*166 PHY_EDGE_ROW_3_Left_13
*167 PHY_EDGE_ROW_3_Right_3
*168 PHY_EDGE_ROW_4_Left_14
*169 PHY_EDGE_ROW_4_Right_4
*170 PHY_EDGE_ROW_5_Left_15
*171 PHY_EDGE_ROW_5_Right_5
*172 PHY_EDGE_ROW_6_Left_16
*173 PHY_EDGE_ROW_6_Right_6
*174 PHY_EDGE_ROW_7_Left_17
*175 PHY_EDGE_ROW_7_Right_7
*176 PHY_EDGE_ROW_8_Left_18
*177 PHY_EDGE_ROW_8_Right_8
*178 PHY_EDGE_ROW_9_Left_19
*179 PHY_EDGE_ROW_9_Right_9
*180 TAP_TAPCELL_ROW_0_20
*181 TAP_TAPCELL_ROW_0_21
*182 TAP_TAPCELL_ROW_1_22
*183 TAP_TAPCELL_ROW_2_23
*184 TAP_TAPCELL_ROW_3_24
*185 TAP_TAPCELL_ROW_4_25
*186 TAP_TAPCELL_ROW_5_26
*187 TAP_TAPCELL_ROW_6_27
*188 TAP_TAPCELL_ROW_7_28
*189 TAP_TAPCELL_ROW_8_29
*190 TAP_TAPCELL_ROW_9_30
*191 TAP_TAPCELL_ROW_9_31
*192 _048_
*193 _049_
*194 _050_
*195 _051_
*196 _052_
*197 _053_
*198 _054_
*199 _055_
*200 _056_
*201 _057_
*202 _058_
*203 _059_
*204 _060_
*205 _061_
*206 _062_
*207 _063_
*208 _064_
*209 _065_
*210 _066_
*211 _067_
*212 _068_
*213 _069_
*214 _070_
*215 _071_
*216 _072_
*217 _073_
*218 _074_
*219 _075_
*220 _076_
*221 _077_
*222 _078_
*223 _079_
*224 _080_
*225 _081_
*226 _082_
*227 _083_
*228 _084_
*229 _085_
*230 _086_
*231 _087_
*232 _088_
*233 _089_
*234 _090_
*235 _091_
*236 _092_
*237 _093_
*238 _094_
*239 _095_
*240 _096_
*241 _097_
*242 _098_
*243 _099_
*244 _100_
*245 _101_
*246 _102_
*247 _103_
*248 input1
*249 input2
*250 input3
*251 input4
*252 input5
*253 input6
*254 input7
*255 input8
*256 max_cap17
*257 output10
*258 output11
*259 output12
*260 output13
*261 output14
*262 output15
*263 output16
*264 output9

*PORTS
A[0] I
A[1] I
A[2] I
A[3] I
B[0] I
B[1] I
B[2] I
B[3] I
P[0] O
P[1] O
P[2] O
P[3] O
P[4] O
P[5] O
P[6] O
P[7] O

*D_NET *1 0.000787594
*CONN
*P A[0] I
*I *248:A I *D sky130_fd_sc_hd__clkbuf_1
*CAP
1 A[0] 0.000393797
2 *248:A 0.000393797
3 *248:A P[0] 0
4 *248:A P[3] 0
5 *248:A *259:A 0
*RES
1 A[0] *248:A 10.35 
*END

*D_NET *2 0.00157604
*CONN
*P A[1] I
*I *249:A I *D sky130_fd_sc_hd__buf_1
*CAP
1 A[1] 0.000467073
2 *249:A 0.000467073
3 *249:A P[1] 0
4 *249:A *198:B1 0.000225504
5 *249:A *253:A 0
6 *249:A *257:A 0.000247039
7 *249:A *21:10 8.7152e-06
8 *249:A *45:14 0.000160635
*RES
1 A[1] *249:A 13.68 
*END

*D_NET *3 0.000413385
*CONN
*P A[2] I
*I *250:A I *D sky130_fd_sc_hd__dlymetal6s2s_1
*CAP
1 A[2] 0.000125502
2 *250:A 0.000125502
3 *250:A P[2] 7.70436e-05
4 *250:A *232:D 0
5 *250:A *251:A 8.53361e-05
*RES
1 A[2] *250:A 4.84677 
*END

*D_NET *4 0.000599346
*CONN
*P A[3] I
*I *251:A I *D sky130_fd_sc_hd__dlymetal6s2s_1
*CAP
1 A[3] 0.000215565
2 *251:A 0.000215565
3 *251:A *232:D 0
4 *251:A *254:A 8.28789e-05
5 *250:A *251:A 8.53361e-05
*RES
1 A[3] *251:A 6.37677 
*END

*D_NET *5 0.00107867
*CONN
*P B[0] I
*I *252:A I *D sky130_fd_sc_hd__buf_1
*CAP
1 B[0] 0.000465536
2 *252:A 0.000465536
3 *252:A *202:A 9.93004e-05
4 *252:A *253:A 4.82919e-05
*RES
1 B[0] *252:A 12.075 
*END

*D_NET *6 0.00122613
*CONN
*P B[1] I
*I *253:A I *D sky130_fd_sc_hd__clkbuf_2
*CAP
1 B[1] 0.000572778
2 *253:A 0.000572778
3 *253:A *199:B 1.0124e-05
4 *253:A *202:A 1.17309e-05
5 *253:A *23:6 1.04258e-05
6 *249:A *253:A 0
7 *252:A *253:A 4.82919e-05
*RES
1 B[1] *253:A 12.72 
*END

*D_NET *7 0.000578093
*CONN
*P B[2] I
*I *254:A I *D sky130_fd_sc_hd__buf_1
*CAP
1 B[2] 0.000206168
2 *254:A 0.000206168
3 *254:A *232:D 0
4 *254:A *255:A 8.28789e-05
5 *251:A *254:A 8.28789e-05
*RES
1 B[2] *254:A 6.12177 
*END

*D_NET *8 0.000494966
*CONN
*P B[3] I
*I *255:A I *D sky130_fd_sc_hd__clkbuf_2
*CAP
1 B[3] 0.000206044
2 *255:A 0.000206044
3 *255:A *233:B 0
4 *254:A *255:A 8.28789e-05
*RES
1 B[3] *255:A 5.16003 
*END

*D_NET *9 0.000812293
*CONN
*P P[0] O
*I *264:X O *D sky130_fd_sc_hd__buf_2
*CAP
1 P[0] 0.000406146
2 *264:X 0.000406146
3 P[0] P[1] 0
4 *248:A P[0] 0
*RES
1 *264:X P[0] 10.185 
*END

*D_NET *10 0.00157258
*CONN
*P P[1] O
*I *257:X O *D sky130_fd_sc_hd__buf_2
*CAP
1 P[1] 0.000565458
2 *257:X 0.000565458
3 P[1] *198:A1 4.99524e-05
4 P[1] *198:A3 0.000158072
5 P[1] *198:B1 1.34503e-05
6 P[1] *19:12 5.12462e-05
7 P[1] *23:6 0.000122331
8 P[1] *80:60 4.66108e-05
9 P[0] P[1] 0
10 *249:A P[1] 0
*RES
1 *257:X P[1] 14.175 
*END

*D_NET *11 0.000468131
*CONN
*P P[2] O
*I *258:X O *D sky130_fd_sc_hd__buf_2
*CAP
1 P[2] 0.000195544
2 *258:X 0.000195544
3 P[2] *202:A 0
4 *250:A P[2] 7.70436e-05
*RES
1 *258:X P[2] 4.90503 
*END

*D_NET *12 0.000876668
*CONN
*P P[3] O
*I *259:X O *D sky130_fd_sc_hd__buf_2
*CAP
1 P[3] 0.000438334
2 *259:X 0.000438334
3 *248:A P[3] 0
*RES
1 *259:X P[3] 10.53 
*END

*D_NET *13 0.000593341
*CONN
*P P[4] O
*I *260:X O *D sky130_fd_sc_hd__buf_2
*CAP
1 P[4] 0.000267748
2 *260:X 0.000267748
3 P[4] *260:A 5.78448e-05
*RES
1 *260:X P[4] 5.92503 
*END

*D_NET *14 0.00085605
*CONN
*P P[5] O
*I *261:X O *D sky130_fd_sc_hd__buf_2
*CAP
1 P[5] 0.000428025
2 *261:X 0.000428025
*RES
1 *261:X P[5] 11.205 
*END

*D_NET *15 0.00135854
*CONN
*P P[6] O
*I *262:X O *D sky130_fd_sc_hd__buf_2
*CAP
1 P[6] 0.000586932
2 *262:X 0.000586932
3 P[6] P[7] 0
4 P[6] *243:A 0
5 P[6] *243:B 9.49203e-05
6 P[6] *246:B1 0
7 P[6] *262:A 8.97564e-05
*RES
1 *262:X P[6] 14.865 
*END

*D_NET *16 0.00146375
*CONN
*P P[7] O
*I *263:X O *D sky130_fd_sc_hd__buf_2
*CAP
1 P[7] 0.000515652
2 *263:X 0.000515652
3 P[7] *246:B1 0.000253956
4 P[7] *56:16 7.70758e-05
5 P[7] *62:12 0.00010141
6 P[6] P[7] 0
*RES
1 *263:X P[7] 14.52 
*END

*D_NET *19 0.00155081
*CONN
*I *197:C I *D sky130_fd_sc_hd__and4_1
*I *198:A3 I *D sky130_fd_sc_hd__a31o_1
*I *193:A I *D sky130_fd_sc_hd__inv_2
*I *192:Y O *D sky130_fd_sc_hd__nand2_1
*CAP
1 *197:C 0.000136156
2 *198:A3 8.16555e-05
3 *193:A 0
4 *192:Y 3.43016e-05
5 *19:12 0.000263845
6 *19:6 0.000352647
7 *197:C *257:A 0.000185494
8 *198:A3 *198:B1 8.12262e-05
9 *198:A3 *80:60 1.91597e-05
10 *19:6 *257:A 4.77719e-05
11 *19:12 *192:A 1.88602e-05
12 *19:12 *198:A1 1.08056e-05
13 *19:12 *76:27 4.78726e-05
14 *19:12 *80:37 1.70467e-05
15 *19:12 *80:39 4.46495e-05
16 *19:12 *80:60 0
17 P[1] *198:A3 0.000158072
18 P[1] *19:12 5.12462e-05
*RES
1 *192:Y *19:6 2.05 
2 *19:6 *19:12 6.91 
3 *19:12 *193:A 1.6 
4 *19:12 *198:A3 3.79 
5 *19:6 *197:C 3.43 
*END

*D_NET *20 0.00129388
*CONN
*I *216:B1_N I *D sky130_fd_sc_hd__o21bai_1
*I *213:C_N I *D sky130_fd_sc_hd__or3b_1
*I *195:A_N I *D sky130_fd_sc_hd__and3b_1
*I *194:X O *D sky130_fd_sc_hd__and4_1
*CAP
1 *216:B1_N 1.07938e-05
2 *213:C_N 1.97101e-05
3 *195:A_N 6.95188e-05
4 *194:X 1.52112e-05
5 *20:21 0.000297603
6 *20:6 0.000351829
7 *195:A_N *195:C 4.82863e-05
8 *195:A_N *45:14 0.000121485
9 *213:C_N *213:A 8.8774e-06
10 *213:C_N *213:B 0
11 *216:B1_N *213:A 2.68526e-05
12 *216:B1_N *213:B 3.68999e-05
13 *20:6 *195:C 8.52883e-05
14 *20:6 *45:14 4.40028e-05
15 *20:21 *213:A 3.00355e-05
16 *20:21 *213:B 4.66108e-05
17 *20:21 *39:22 8.08757e-05
*RES
1 *194:X *20:6 2.395 
2 *20:6 *195:A_N 3.43 
3 *20:6 *20:21 8.38 
4 *20:21 *213:C_N 1.96 
5 *20:21 *216:B1_N 2.05 
*END

*D_NET *21 0.00317717
*CONN
*I *207:A I *D sky130_fd_sc_hd__or4_2
*I *208:A1 I *D sky130_fd_sc_hd__o22ai_1
*I *197:D I *D sky130_fd_sc_hd__and4_1
*I *198:B1 I *D sky130_fd_sc_hd__a31o_1
*I *196:X O *D sky130_fd_sc_hd__and2_1
*CAP
1 *207:A 0.000205478
2 *208:A1 9.73191e-06
3 *197:D 0
4 *198:B1 0.000186414
5 *196:X 0.000104685
6 *21:32 0.00049936
7 *21:10 0.000403785
8 *21:8 0.000606206
9 *198:B1 *198:A2 7.36562e-05
10 *198:B1 *76:21 3.8004e-05
11 *207:A *207:C 0.000192864
12 *207:A *32:12 1.06624e-05
13 *207:A *82:45 0
14 *208:A1 *207:C 4.82863e-05
15 *208:A1 *207:D 4.82863e-05
16 *21:8 *39:22 0.000163204
17 *21:10 *206:A 0
18 *21:10 *214:A1 0
19 *21:10 *215:B 0
20 *21:10 *257:A 9.387e-06
21 *21:10 *35:40 8.53113e-06
22 *21:10 *80:37 0
23 *21:32 *206:A 0
24 *21:32 *35:40 0.00023973
25 *21:32 *81:16 0
26 *21:32 *82:45 0
27 P[1] *198:B1 1.34503e-05
28 *198:A3 *198:B1 8.12262e-05
29 *249:A *198:B1 0.000225504
30 *249:A *21:10 8.7152e-06
*RES
1 *196:X *21:8 5.085 
2 *21:8 *21:10 3.42 
3 *21:10 *198:B1 8.1 
4 *21:10 *197:D 3.6 
5 *21:8 *21:32 4.95 
6 *21:32 *208:A1 4.05 
7 *21:32 *207:A 6.66 
*END

*D_NET *22 0.00103896
*CONN
*I *221:B1 I *D sky130_fd_sc_hd__a31o_1
*I *199:A_N I *D sky130_fd_sc_hd__and2b_1
*I *197:X O *D sky130_fd_sc_hd__and4_1
*CAP
1 *221:B1 8.53698e-05
2 *199:A_N 9.30064e-05
3 *197:X 0.000118552
4 *22:6 0.000296928
5 *199:A_N *221:A2 9.37731e-05
6 *199:A_N *257:A 0
7 *199:A_N *80:8 0
8 *221:B1 *201:B 6.97118e-05
9 *22:6 *201:B 5.83121e-06
10 *22:6 *45:14 0.000201508
11 *22:6 *76:8 4.82919e-05
12 *22:6 *79:27 2.59835e-05
*RES
1 *197:X *22:6 4.12 
2 *22:6 *199:A_N 7.235 
3 *22:6 *221:B1 3.1 
*END

*D_NET *23 0.00112659
*CONN
*I *199:B I *D sky130_fd_sc_hd__and2b_1
*I *221:A2 I *D sky130_fd_sc_hd__a31o_1
*I *198:X O *D sky130_fd_sc_hd__a31o_1
*CAP
1 *199:B 8.65207e-05
2 *221:A2 7.81447e-05
3 *198:X 0.000275551
4 *23:6 0.000440216
5 *221:A2 *221:A1 9.50342e-06
6 *221:A2 *80:8 0
7 P[1] *23:6 0.000122331
8 *199:A_N *221:A2 9.37731e-05
9 *253:A *199:B 1.0124e-05
10 *253:A *23:6 1.04258e-05
*RES
1 *198:X *23:6 4.81 
2 *23:6 *221:A2 6.98 
3 *23:6 *199:B 2.755 
*END

*D_NET *24 0.000732198
*CONN
*I *202:A I *D sky130_fd_sc_hd__xnor2_1
*I *199:X O *D sky130_fd_sc_hd__and2b_1
*CAP
1 *202:A 0.000273365
2 *199:X 0.000273365
3 *202:A *79:12 7.44375e-05
4 P[2] *202:A 0
5 *252:A *202:A 9.93004e-05
6 *253:A *202:A 1.17309e-05
*RES
1 *199:X *202:A 11.355 
*END

*D_NET *25 0.000864726
*CONN
*I *201:B I *D sky130_fd_sc_hd__nand2_1
*I *221:A3 I *D sky130_fd_sc_hd__a31o_1
*I *200:X O *D sky130_fd_sc_hd__a21bo_1
*CAP
1 *201:B 8.48494e-05
2 *221:A3 0
3 *200:X 0.000111614
4 *25:12 0.000196464
5 *201:B *79:23 0.000190633
6 *201:B *79:27 8.49205e-05
7 *25:12 *205:B 0
8 *25:12 *214:A1 4.87819e-05
9 *25:12 *214:B1 4.82919e-05
10 *25:12 *221:A1 1.52184e-05
11 *25:12 *79:33 8.41015e-06
12 *221:B1 *201:B 6.97118e-05
13 *22:6 *201:B 5.83121e-06
*RES
1 *200:X *25:12 7.43 
2 *25:12 *221:A3 1.6 
3 *25:12 *201:B 4.12 
*END

*D_NET *26 0.000205536
*CONN
*I *202:B I *D sky130_fd_sc_hd__xnor2_1
*I *201:Y O *D sky130_fd_sc_hd__nand2_1
*CAP
1 *202:B 6.8621e-05
2 *201:Y 6.8621e-05
3 *202:B *79:12 4.66108e-05
4 *202:B *79:21 1.46744e-05
5 *202:B *79:23 7.00889e-06
*RES
1 *201:Y *202:B 4.34 
*END

*D_NET *27 0.00299156
*CONN
*I *241:C I *D sky130_fd_sc_hd__and3_1
*I *245:A1 I *D sky130_fd_sc_hd__a21oi_1
*I *209:A_N I *D sky130_fd_sc_hd__nand3b_1
*I *210:B1_N I *D sky130_fd_sc_hd__a21bo_1
*I *203:Y O *D sky130_fd_sc_hd__nand2_1
*CAP
1 *241:C 0.000156164
2 *245:A1 0.000164697
3 *209:A_N 1.81394e-05
4 *210:B1_N 1.26497e-05
5 *203:Y 0
6 *27:36 0.00043838
7 *27:16 0.000421674
8 *27:4 0.000508404
9 *209:A_N *31:19 4.51825e-06
10 *210:B1_N *210:A1 2.26739e-05
11 *210:B1_N *210:A2 4.89295e-05
12 *210:B1_N *33:8 8.696e-05
13 *241:C *82:25 9.49276e-05
14 *241:C *82:31 0.000141253
15 *245:A1 *245:A2 6.51777e-05
16 *245:A1 *245:B1 8.49205e-05
17 *245:A1 *56:16 7.00889e-06
18 *245:A1 *82:31 5.83121e-06
19 *245:A1 *82:39 1.91597e-05
20 *27:16 *210:A1 4.66742e-05
21 *27:16 *229:A 4.66826e-05
22 *27:16 *31:19 9.13949e-06
23 *27:16 *31:32 6.11042e-05
24 *27:16 *33:6 3.15054e-05
25 *27:16 *33:8 0.000108098
26 *27:16 *82:45 0.000260552
27 *27:36 *228:B 0
28 *27:36 *243:B 0
29 *27:36 *245:B1 7.06865e-05
30 *27:36 *246:B1 7.21296e-06
31 *27:36 *78:69 0
32 *27:36 *82:39 4.84393e-05
*RES
1 *203:Y *27:4 1.6 
2 *27:4 *27:16 8.205 
3 *27:16 *210:B1_N 2.395 
4 *27:16 *209:A_N 1.96 
5 *27:4 *27:36 6.145 
6 *27:36 *245:A1 4.15 
7 *27:36 *241:C 3.835 
*END

*D_NET *28 0.000854889
*CONN
*I *208:A2 I *D sky130_fd_sc_hd__o22ai_1
*I *207:B I *D sky130_fd_sc_hd__or4_2
*I *204:Y O *D sky130_fd_sc_hd__nand2_1
*CAP
1 *208:A2 0.000136104
2 *207:B 0
3 *204:Y 0.000134892
4 *28:12 0.000270995
5 *208:A2 *32:12 0.000197264
6 *28:12 *204:A 1.16854e-05
7 *28:12 *204:B 3.51072e-05
8 *28:12 *82:45 6.88421e-05
*RES
1 *204:Y *28:12 7.61 
2 *28:12 *207:B 1.6 
3 *28:12 *208:A2 3.43 
*END

*D_NET *29 0.00260572
*CONN
*I *242:A1 I *D sky130_fd_sc_hd__a21oi_1
*I *208:B1 I *D sky130_fd_sc_hd__o22ai_1
*I *207:C I *D sky130_fd_sc_hd__or4_2
*I *231:A I *D sky130_fd_sc_hd__xnor2_1
*I *215:A I *D sky130_fd_sc_hd__nor2_1
*I *205:X O *D sky130_fd_sc_hd__and4_1
*CAP
1 *242:A1 0
2 *208:B1 0
3 *207:C 0.000100694
4 *231:A 0
5 *215:A 5.43368e-05
6 *205:X 0
7 *29:34 0.000236726
8 *29:32 0.000285595
9 *29:19 0.000307315
10 *29:4 0.000212088
11 *207:C *207:D 5.01364e-05
12 *207:C *30:12 5.30673e-05
13 *207:C *32:12 2.96426e-05
14 *215:A *205:C 1.48813e-05
15 *215:A *206:B 4.82863e-05
16 *29:19 *205:C 4.29198e-05
17 *29:19 *232:D 0
18 *29:19 *77:45 0.000116165
19 *29:32 *232:A_N 2.96466e-05
20 *29:32 *232:D 0
21 *29:32 *242:B1 8.23457e-05
22 *29:32 *54:10 0
23 *29:32 *77:45 0.000219699
24 *29:32 *81:6 0.000155491
25 *29:34 *30:12 8.57237e-05
26 *29:34 *81:6 3.83041e-05
27 *29:34 *81:10 0.000201508
28 *207:A *207:C 0.000192864
29 *208:A1 *207:C 4.82863e-05
*RES
1 *205:X *29:4 1.6 
2 *29:4 *215:A 2.665 
3 *29:4 *29:19 4.52 
4 *29:19 *231:A 3.6 
5 *29:19 *29:32 6.14 
6 *29:32 *29:34 3.21 
7 *29:34 *207:C 4.48 
8 *29:34 *208:B1 1.6 
9 *29:32 *242:A1 1.6 
*END

*D_NET *30 0.00123246
*CONN
*I *208:B2 I *D sky130_fd_sc_hd__o22ai_1
*I *207:D I *D sky130_fd_sc_hd__or4_2
*I *206:Y O *D sky130_fd_sc_hd__nand2_1
*CAP
1 *208:B2 0
2 *207:D 4.18686e-05
3 *206:Y 0.000245707
4 *30:12 0.000287576
5 *207:D *32:12 0.000124007
6 *30:12 *242:A2 0
7 *30:12 *78:12 0
8 *30:12 *78:58 0
9 *30:12 *81:16 0.000296088
10 *207:C *207:D 5.01364e-05
11 *207:C *30:12 5.30673e-05
12 *208:A1 *207:D 4.82863e-05
13 *29:34 *30:12 8.57237e-05
*RES
1 *206:Y *30:12 11.195 
2 *30:12 *207:D 3.1 
3 *30:12 *208:B2 1.6 
*END

*D_NET *31 0.00219914
*CONN
*I *234:A I *D sky130_fd_sc_hd__nand3_1
*I *235:A1 I *D sky130_fd_sc_hd__a21oi_1
*I *210:A1 I *D sky130_fd_sc_hd__a21bo_1
*I *209:B I *D sky130_fd_sc_hd__nand3b_1
*I *207:X O *D sky130_fd_sc_hd__or4_2
*CAP
1 *234:A 0.000192978
2 *235:A1 0
3 *210:A1 0.000133779
4 *209:B 0
5 *207:X 0.000150127
6 *31:32 0.000332993
7 *31:19 0.000291732
8 *31:12 0.000168065
9 *210:A1 *210:A2 0.000197822
10 *234:A *234:B 6.61132e-05
11 *234:A *234:C 8.52845e-05
12 *234:A *236:A 3.15006e-05
13 *234:A *240:A3 1.44259e-05
14 *234:A *56:16 0
15 *31:12 *209:C 2.05641e-05
16 *31:12 *32:12 0.000142537
17 *31:12 *33:28 4.99581e-05
18 *31:32 *33:28 0.000177151
19 *209:A_N *31:19 4.51825e-06
20 *210:B1_N *210:A1 2.26739e-05
21 *27:16 *210:A1 4.66742e-05
22 *27:16 *31:19 9.13949e-06
23 *27:16 *31:32 6.11042e-05
*RES
1 *207:X *31:12 8.12 
2 *31:12 *209:B 1.6 
3 *31:12 *31:19 0.36 
4 *31:19 *210:A1 4.465 
5 *31:19 *31:32 4.94 
6 *31:32 *235:A1 3.6 
7 *31:32 *234:A 6.87 
*END

*D_NET *32 0.00187515
*CONN
*I *209:C I *D sky130_fd_sc_hd__nand3b_1
*I *210:A2 I *D sky130_fd_sc_hd__a21bo_1
*I *208:Y O *D sky130_fd_sc_hd__o22ai_1
*CAP
1 *209:C 4.52903e-06
2 *210:A2 0.000152797
3 *208:Y 0.000339194
4 *32:12 0.00049652
5 *210:A2 *33:8 0.000110677
6 *32:12 *82:45 0
7 *207:A *32:12 1.06624e-05
8 *207:C *32:12 2.96426e-05
9 *207:D *32:12 0.000124007
10 *208:A2 *32:12 0.000197264
11 *210:A1 *210:A2 0.000197822
12 *210:B1_N *210:A2 4.89295e-05
13 *31:12 *209:C 2.05641e-05
14 *31:12 *32:12 0.000142537
*RES
1 *208:Y *32:12 10.4775 
2 *32:12 *210:A2 6.8025 
3 *32:12 *209:C 3.8325 
*END

*D_NET *33 0.00274697
*CONN
*I *235:A2 I *D sky130_fd_sc_hd__a21oi_1
*I *234:B I *D sky130_fd_sc_hd__nand3_1
*I *219:A I *D sky130_fd_sc_hd__and3_1
*I *220:A1 I *D sky130_fd_sc_hd__a21oi_1
*I *209:Y O *D sky130_fd_sc_hd__nand3b_1
*CAP
1 *235:A2 0
2 *234:B 3.42633e-05
3 *219:A 2.08101e-05
4 *220:A1 0.000164732
5 *209:Y 3.0073e-05
6 *33:28 0.000183236
7 *33:8 0.00064999
8 *33:6 0.000643493
9 *220:A1 *219:C 6.2397e-05
10 *220:A1 *220:A2 8.01016e-06
11 *220:A1 *220:B1 8.65905e-05
12 *220:A1 *34:6 1.0124e-05
13 *234:B *234:C 4.72159e-05
14 *234:B *236:A 4.82863e-05
15 *234:B *58:8 8.52161e-05
16 *33:8 *34:6 2.68506e-05
17 *33:28 *240:A3 1.52184e-05
18 *33:28 *82:45 0
19 *210:A2 *33:8 0.000110677
20 *210:B1_N *33:8 8.696e-05
21 *234:A *234:B 6.61132e-05
22 *27:16 *33:6 3.15054e-05
23 *27:16 *33:8 0.000108098
24 *31:12 *33:28 4.99581e-05
25 *31:32 *33:28 0.000177151
*RES
1 *209:Y *33:6 2.05 
2 *33:6 *33:8 5.97 
3 *33:8 *220:A1 3.775 
4 *33:8 *219:A 1.96 
5 *33:6 *33:28 6.91 
6 *33:28 *234:B 3.07 
7 *33:28 *235:A2 1.6 
*END

*D_NET *34 0.00078656
*CONN
*I *219:B I *D sky130_fd_sc_hd__and3_1
*I *220:A2 I *D sky130_fd_sc_hd__a21oi_1
*I *210:X O *D sky130_fd_sc_hd__a21bo_1
*CAP
1 *219:B 0
2 *220:A2 8.73188e-05
3 *210:X 0.000212135
4 *34:6 0.000299454
5 *220:A2 *219:C 7.32729e-05
6 *220:A2 *220:B1 4.82863e-05
7 *220:A2 *226:A1 2.11084e-05
8 *220:A1 *220:A2 8.01016e-06
9 *220:A1 *34:6 1.0124e-05
10 *33:8 *34:6 2.68506e-05
*RES
1 *210:X *34:6 4.12 
2 *34:6 *220:A2 3.61 
3 *34:6 *219:B 1.6 
*END

*D_NET *35 0.00347684
*CONN
*I *231:B I *D sky130_fd_sc_hd__xnor2_1
*I *242:A2 I *D sky130_fd_sc_hd__a21oi_1
*I *216:A1 I *D sky130_fd_sc_hd__o21bai_1
*I *213:A I *D sky130_fd_sc_hd__or3b_1
*I *211:X O *D sky130_fd_sc_hd__and4_1
*CAP
1 *231:B 9.03988e-05
2 *242:A2 9.48915e-05
3 *216:A1 0
4 *213:A 0.000131063
5 *211:X 0
6 *35:40 0.000595453
7 *35:12 0.000442833
8 *35:4 0.000721933
9 *213:A *213:B 5.48451e-05
10 *213:A *36:12 6.87975e-05
11 *213:A *39:22 3.46204e-05
12 *213:A *40:10 0.000201537
13 *213:A *67:57 5.20263e-05
14 *213:A *67:76 1.31519e-05
15 *231:B *78:10 4.80285e-05
16 *242:A2 *78:58 0.000105849
17 *242:A2 *81:16 0
18 *35:12 *36:12 5.18317e-06
19 *35:12 *39:22 0.000384834
20 *35:12 *67:57 4.9968e-05
21 *35:40 *82:45 1.22762e-05
22 *35:40 *82:49 5.51245e-05
23 *213:C_N *213:A 8.8774e-06
24 *216:B1_N *213:A 2.68526e-05
25 *20:21 *213:A 3.00355e-05
26 *21:10 *35:40 8.53113e-06
27 *21:32 *35:40 0.00023973
28 *30:12 *242:A2 0
*RES
1 *211:X *35:4 1.6 
2 *35:4 *35:12 8.425 
3 *35:12 *213:A 5.74 
4 *35:12 *216:A1 1.6 
5 *35:4 *35:40 11.155 
6 *35:40 *242:A2 7.745 
7 *35:40 *231:B 3.085 
*END

*D_NET *36 0.000885252
*CONN
*I *216:A2 I *D sky130_fd_sc_hd__o21bai_1
*I *213:B I *D sky130_fd_sc_hd__or3b_1
*I *212:Y O *D sky130_fd_sc_hd__nand2_1
*CAP
1 *216:A2 0
2 *213:B 0.000101609
3 *212:Y 0.000135904
4 *36:12 0.000237513
5 *213:B *39:22 0.00016849
6 *213:B *67:57 8.50369e-06
7 *36:12 *67:57 9.47972e-06
8 *36:12 *67:76 1.14169e-05
9 *213:A *213:B 5.48451e-05
10 *213:A *36:12 6.87975e-05
11 *213:C_N *213:B 0
12 *216:B1_N *213:B 3.68999e-05
13 *20:21 *213:B 4.66108e-05
14 *35:12 *36:12 5.18317e-06
*RES
1 *212:Y *36:12 7.355 
2 *36:12 *213:B 4.405 
3 *36:12 *216:A2 1.6 
*END

*D_NET *37 0.00103846
*CONN
*I *218:B1_N I *D sky130_fd_sc_hd__a21bo_1
*I *217:A I *D sky130_fd_sc_hd__and3_1
*I *222:A1 I *D sky130_fd_sc_hd__a21o_1
*I *213:X O *D sky130_fd_sc_hd__or3b_1
*CAP
1 *218:B1_N 6.16661e-05
2 *217:A 1.88809e-05
3 *222:A1 0.000167498
4 *213:X 3.21472e-05
5 *37:8 0.000294691
6 *37:6 0.000202126
7 *217:A *217:C 5.4155e-06
8 *217:A *40:10 0
9 *218:B1_N *218:A1 0
10 *222:A1 *217:C 1.83194e-05
11 *222:A1 *222:A2 6.50826e-05
12 *222:A1 *222:B1 1.33293e-05
13 *222:A1 *40:10 2.49909e-05
14 *222:A1 *40:12 2.05056e-05
15 *37:6 *40:10 2.30292e-05
16 *37:8 *40:10 9.07793e-05
*RES
1 *213:X *37:6 2.05 
2 *37:6 *37:8 1.485 
3 *37:8 *222:A1 3.775 
4 *37:8 *217:A 1.96 
5 *37:6 *218:B1_N 6.47 
*END

*D_NET *38 0.000540592
*CONN
*I *215:B I *D sky130_fd_sc_hd__nor2_1
*I *214:Y O *D sky130_fd_sc_hd__a22oi_1
*CAP
1 *215:B 0.000128207
2 *214:Y 0.000128207
3 *215:B *206:A 5.4256e-05
4 *215:B *214:A2 7.32775e-05
5 *215:B *214:B1 2.24708e-05
6 *215:B *78:12 9.3062e-06
7 *215:B *78:18 5.12942e-05
8 *215:B *80:27 6.6564e-05
9 *215:B *80:31 7.00889e-06
10 *21:10 *215:B 0
*RES
1 *214:Y *215:B 10.485 
*END

*D_NET *39 0.00406764
*CONN
*I *218:A1 I *D sky130_fd_sc_hd__a21bo_1
*I *217:B I *D sky130_fd_sc_hd__and3_1
*I *222:B1 I *D sky130_fd_sc_hd__a21o_1
*I *215:Y O *D sky130_fd_sc_hd__nor2_1
*CAP
1 *218:A1 0.000120312
2 *217:B 1.77753e-05
3 *222:B1 0.000137165
4 *215:Y 0.000742537
5 *39:24 0.000194282
6 *39:22 0.000902191
7 *218:A1 *218:A2 0.000162325
8 *222:B1 *217:C 0
9 *222:B1 *222:A2 7.60965e-05
10 *222:B1 *41:12 8.65961e-05
11 *39:22 *196:A 0.000271672
12 *39:22 *206:B 4.82863e-05
13 *39:22 *211:D 2.59926e-05
14 *39:22 *212:B 1.52352e-05
15 *39:22 *40:10 0.000165271
16 *39:22 *67:57 8.35106e-05
17 *39:22 *67:76 2.33642e-05
18 *39:22 *81:16 9.91257e-05
19 *39:24 *222:A2 7.00889e-06
20 *39:24 *40:10 2.05056e-05
21 *39:24 *40:12 2.30292e-05
22 *213:A *39:22 3.46204e-05
23 *213:B *39:22 0.00016849
24 *218:B1_N *218:A1 0
25 *222:A1 *222:B1 1.33293e-05
26 *20:21 *39:22 8.08757e-05
27 *21:8 *39:22 0.000163204
28 *35:12 *39:22 0.000384834
*RES
1 *215:Y *39:22 21.23 
2 *39:22 *39:24 0.795 
3 *39:24 *222:B1 4.39 
4 *39:24 *217:B 1.96 
5 *39:22 *218:A1 8 
*END

*D_NET *40 0.00181004
*CONN
*I *218:A2 I *D sky130_fd_sc_hd__a21bo_1
*I *217:C I *D sky130_fd_sc_hd__and3_1
*I *222:A2 I *D sky130_fd_sc_hd__a21o_1
*I *216:Y O *D sky130_fd_sc_hd__o21bai_1
*CAP
1 *218:A2 9.21343e-05
2 *217:C 1.99461e-05
3 *222:A2 2.12823e-05
4 *216:Y 0.000309961
5 *40:12 5.09792e-05
6 *40:10 0.000411846
7 *213:A *40:10 0.000201537
8 *217:A *217:C 5.4155e-06
9 *217:A *40:10 0
10 *218:A1 *218:A2 0.000162325
11 *222:A1 *217:C 1.83194e-05
12 *222:A1 *222:A2 6.50826e-05
13 *222:A1 *40:10 2.49909e-05
14 *222:A1 *40:12 2.05056e-05
15 *222:B1 *217:C 0
16 *222:B1 *222:A2 7.60965e-05
17 *37:6 *40:10 2.30292e-05
18 *37:8 *40:10 9.07793e-05
19 *39:22 *40:10 0.000165271
20 *39:24 *222:A2 7.00889e-06
21 *39:24 *40:10 2.05056e-05
22 *39:24 *40:12 2.30292e-05
*RES
1 *216:Y *40:10 7.6 
2 *40:10 *40:12 0.45 
3 *40:12 *222:A2 2.74 
4 *40:12 *217:C 2.125 
5 *40:10 *218:A2 7.49 
*END

*D_NET *41 0.000574416
*CONN
*I *223:A_N I *D sky130_fd_sc_hd__nand2b_1
*I *224:A_N I *D sky130_fd_sc_hd__nand3b_1
*I *217:X O *D sky130_fd_sc_hd__and3_1
*CAP
1 *223:A_N 0
2 *224:A_N 3.24605e-05
3 *217:X 0.00013872
4 *41:12 0.000171181
5 *224:A_N *223:B 8.8266e-05
6 *41:12 *46:12 5.71917e-05
7 *222:B1 *41:12 8.65961e-05
*RES
1 *217:X *41:12 8.03 
2 *41:12 *224:A_N 2.395 
3 *41:12 *223:A_N 1.6 
*END

*D_NET *42 0.000934574
*CONN
*I *219:C I *D sky130_fd_sc_hd__and3_1
*I *220:B1 I *D sky130_fd_sc_hd__a21oi_1
*I *218:X O *D sky130_fd_sc_hd__a21bo_1
*CAP
1 *219:C 1.10312e-05
2 *220:B1 5.21036e-05
3 *218:X 0.000240134
4 *42:12 0.000303269
5 *220:B1 *226:A1 5.74899e-05
6 *42:12 *48:8 0
7 *220:A1 *219:C 6.2397e-05
8 *220:A1 *220:B1 8.65905e-05
9 *220:A2 *219:C 7.32729e-05
10 *220:A2 *220:B1 4.82863e-05
*RES
1 *218:X *42:12 9.215 
2 *42:12 *220:B1 3.085 
3 *42:12 *219:C 2.275 
*END

*D_NET *43 0.00330698
*CONN
*I *237:B1 I *D sky130_fd_sc_hd__a211oi_1
*I *238:A1 I *D sky130_fd_sc_hd__o211a_1
*I *240:A1 I *D sky130_fd_sc_hd__o31a_1
*I *225:A I *D sky130_fd_sc_hd__nor3_1
*I *226:A1 I *D sky130_fd_sc_hd__o21a_1
*I *219:X O *D sky130_fd_sc_hd__and3_1
*CAP
1 *237:B1 0.000158909
2 *238:A1 0
3 *240:A1 0.000245944
4 *225:A 0.000148195
5 *226:A1 0.000142705
6 *219:X 0
7 *43:38 0.000284633
8 *43:34 0.000459461
9 *43:21 0.000498129
10 *43:4 0.000230775
11 *226:A1 *44:6 3.00381e-05
12 *237:B1 *239:A 0.000163199
13 *240:A1 *237:A1 8.52883e-05
14 *240:A1 *238:A2 8.30853e-06
15 *240:A1 *239:A 8.53113e-06
16 *240:A1 *240:A2 3.29817e-05
17 *240:A1 *57:19 0.000177242
18 *43:21 *225:B 0
19 *43:21 *225:C 0
20 *43:34 *59:10 0
21 *43:38 *237:A1 0.000276441
22 *43:38 *237:A2 0.000277601
23 *220:A2 *226:A1 2.11084e-05
24 *220:B1 *226:A1 5.74899e-05
*RES
1 *219:X *43:4 1.6 
2 *43:4 *226:A1 4.15 
3 *43:4 *43:21 5.38 
4 *43:21 *225:A 3.775 
5 *43:21 *43:34 5.975 
6 *43:34 *43:38 4.52 
7 *43:38 *240:A1 10.25 
8 *43:38 *238:A1 1.6 
9 *43:34 *237:B1 5.955 
*END

*D_NET *44 0.000461437
*CONN
*I *226:A2 I *D sky130_fd_sc_hd__o21a_1
*I *225:B I *D sky130_fd_sc_hd__nor3_1
*I *220:Y O *D sky130_fd_sc_hd__a21oi_1
*CAP
1 *226:A2 0
2 *225:B 0.000126888
3 *220:Y 6.03003e-05
4 *44:6 0.000187189
5 *225:B *225:C 5.20968e-05
6 *225:B *226:B1 4.9253e-06
7 *226:A1 *44:6 3.00381e-05
8 *43:21 *225:B 0
*RES
1 *220:Y *44:6 2.395 
2 *44:6 *225:B 7.52 
3 *44:6 *226:A2 1.6 
*END

*D_NET *45 0.00323492
*CONN
*I *247:A I *D sky130_fd_sc_hd__xnor2_1
*I *224:B I *D sky130_fd_sc_hd__nand3b_1
*I *221:X O *D sky130_fd_sc_hd__a31o_1
*CAP
1 *247:A 0
2 *224:B 0.000200738
3 *221:X 0.000703572
4 *45:14 0.00090431
5 *224:B *247:B 0
6 *224:B *46:12 9.50342e-06
7 *45:14 *192:B 0.000149376
8 *45:14 *195:B 4.82863e-05
9 *45:14 *195:C 3.99431e-05
10 *45:14 *257:A 0.000126828
11 *45:14 *259:A 0.000119631
12 *45:14 *67:25 0.000195764
13 *45:14 *76:8 8.05167e-05
14 *45:14 *76:27 0.000121817
15 *45:14 *79:27 7.00889e-06
16 *195:A_N *45:14 0.000121485
17 *249:A *45:14 0.000160635
18 *20:6 *45:14 4.40028e-05
19 *22:6 *45:14 0.000201508
*RES
1 *221:X *45:14 17.38 
2 *45:14 *224:B 8.63 
3 *45:14 *247:A 1.6 
*END

*D_NET *46 0.00066771
*CONN
*I *224:C I *D sky130_fd_sc_hd__nand3b_1
*I *223:B I *D sky130_fd_sc_hd__nand2b_1
*I *222:X O *D sky130_fd_sc_hd__a21o_1
*CAP
1 *224:C 0
2 *223:B 0.00010745
3 *222:X 0.000110259
4 *46:12 0.00021771
5 *223:B *247:B 4.85422e-05
6 *46:12 *48:8 2.87867e-05
7 *224:A_N *223:B 8.8266e-05
8 *224:B *46:12 9.50342e-06
9 *41:12 *46:12 5.71917e-05
*RES
1 *222:X *46:12 7.685 
2 *46:12 *223:B 3.91375 
3 *46:12 *224:C 1.6 
*END

*D_NET *47 0.00051497
*CONN
*I *247:B I *D sky130_fd_sc_hd__xnor2_1
*I *223:Y O *D sky130_fd_sc_hd__nand2b_1
*CAP
1 *247:B 0.000233214
2 *223:Y 0.000233214
3 *223:B *247:B 4.85422e-05
4 *224:B *247:B 0
*RES
1 *223:Y *247:B 10.32 
*END

*D_NET *48 0.00143301
*CONN
*I *225:C I *D sky130_fd_sc_hd__nor3_1
*I *226:B1 I *D sky130_fd_sc_hd__o21a_1
*I *224:Y O *D sky130_fd_sc_hd__nand3b_1
*CAP
1 *225:C 0.000154385
2 *226:B1 5.28432e-05
3 *224:Y 0.000440401
4 *48:8 0.000647629
5 *225:C *227:A 4.82919e-05
6 *225:C *227:B 0
7 *226:B1 *227:B 3.64998e-06
8 *225:B *225:C 5.20968e-05
9 *225:B *226:B1 4.9253e-06
10 *42:12 *48:8 0
11 *43:21 *225:C 0
12 *46:12 *48:8 2.87867e-05
*RES
1 *224:Y *48:8 11.1 
2 *48:8 *226:B1 4.395 
3 *48:8 *225:C 6.45 
*END

*D_NET *49 0.000570607
*CONN
*I *256:A I *D sky130_fd_sc_hd__buf_1
*I *227:A I *D sky130_fd_sc_hd__nor2_1
*I *225:Y O *D sky130_fd_sc_hd__nor3_1
*CAP
1 *256:A 0.000149403
2 *227:A 0.000111755
3 *225:Y 0
4 *49:4 0.000261158
5 *256:A *260:A 0
6 *225:C *227:A 4.82919e-05
*RES
1 *225:Y *49:4 1.6 
2 *49:4 *227:A 3.46 
3 *49:4 *256:A 7.775 
*END

*D_NET *50 0.000487407
*CONN
*I *227:B I *D sky130_fd_sc_hd__nor2_1
*I *226:X O *D sky130_fd_sc_hd__o21a_1
*CAP
1 *227:B 0.000241878
2 *226:X 0.000241878
3 *225:C *227:B 0
4 *226:B1 *227:B 3.64998e-06
*RES
1 *226:X *227:B 10.32 
*END

*D_NET *51 0.000558953
*CONN
*I *245:B1 I *D sky130_fd_sc_hd__a21oi_1
*I *228:Y O *D sky130_fd_sc_hd__nand2_1
*CAP
1 *245:B1 9.51767e-05
2 *228:Y 9.51767e-05
3 *245:B1 *245:A2 0.000103187
4 *245:B1 *246:B1 1.1561e-05
5 *245:B1 *82:39 9.82456e-05
6 *245:A1 *245:B1 8.49205e-05
7 *27:36 *245:B1 7.06865e-05
*RES
1 *228:Y *245:B1 9.66 
*END

*D_NET *52 0.000570443
*CONN
*I *232:A_N I *D sky130_fd_sc_hd__and4bb_1
*I *230:A_N I *D sky130_fd_sc_hd__and3b_1
*I *229:X O *D sky130_fd_sc_hd__and4_1
*CAP
1 *232:A_N 0.00014377
2 *230:A_N 0
3 *229:X 5.48125e-05
4 *52:6 0.000198583
5 *232:A_N *230:B 1.83756e-05
6 *232:A_N *232:C 6.05917e-05
7 *232:A_N *54:10 0
8 *232:A_N *82:25 8.08153e-06
9 *52:6 *230:B 5.0751e-05
10 *52:6 *77:49 5.83121e-06
11 *29:32 *232:A_N 2.96466e-05
*RES
1 *229:X *52:6 2.74 
2 *52:6 *230:A_N 1.6 
3 *52:6 *232:A_N 8.45 
*END

*D_NET *53 0.000569995
*CONN
*I *233:A I *D sky130_fd_sc_hd__xor2_1
*I *230:X O *D sky130_fd_sc_hd__and3b_1
*CAP
1 *233:A 0.000134943
2 *230:X 0.000134943
3 *233:A *233:B 0.000300109
*RES
1 *230:X *233:A 10.62 
*END

*D_NET *54 0.00198155
*CONN
*I *233:B I *D sky130_fd_sc_hd__xor2_1
*I *232:B_N I *D sky130_fd_sc_hd__and4bb_1
*I *231:Y O *D sky130_fd_sc_hd__xnor2_1
*CAP