* NGSPICE file created from mult8_2bits_1op_e17349.ext - technology: sky130A

* Black-box entry subcircuit for sky130_fd_sc_hd__decap_3 abstract view
.subckt sky130_fd_sc_hd__decap_3 VGND VNB VPB VPWR
.ends

* Black-box entry subcircuit for sky130_fd_sc_hd__tapvpwrvgnd_1 abstract view
.subckt sky130_fd_sc_hd__tapvpwrvgnd_1 VGND VPWR
.ends

* Black-box entry subcircuit for sky130_ef_sc_hd__decap_12 abstract view
.subckt sky130_ef_sc_hd__decap_12 VPWR VGND VPB VNB
.ends

* Black-box entry subcircuit for sky130_fd_sc_hd__decap_8 abstract view
.subckt sky130_fd_sc_hd__decap_8 VGND VNB VPB VPWR
.ends

* Black-box entry subcircuit for sky130_fd_sc_hd__nand2_2 abstract view
.subckt sky130_fd_sc_hd__nand2_2 A B VGND VNB VPB VPWR Y
.ends

* Black-box entry subcircuit for sky130_fd_sc_hd__and4_1 abstract view
.subckt sky130_fd_sc_hd__and4_1 A B C D VGND VNB VPB VPWR X
.ends

* Black-box entry subcircuit for sky130_fd_sc_hd__fill_1 abstract view
.subckt sky130_fd_sc_hd__fill_1 VGND VNB VPB VPWR
.ends

* Black-box entry subcircuit for sky130_fd_sc_hd__dlygate4sd1_1 abstract view
.subckt sky130_fd_sc_hd__dlygate4sd1_1 A VGND VNB VPB VPWR X
.ends

* Black-box entry subcircuit for sky130_fd_sc_hd__nor2_1 abstract view
.subckt sky130_fd_sc_hd__nor2_1 A B VGND VNB VPB VPWR Y
.ends

* Black-box entry subcircuit for sky130_fd_sc_hd__or2_1 abstract view
.subckt sky130_fd_sc_hd__or2_1 A B VGND VNB VPB VPWR X
.ends

* Black-box entry subcircuit for sky130_fd_sc_hd__decap_6 abstract view
.subckt sky130_fd_sc_hd__decap_6 VGND VNB VPB VPWR
.ends

* Black-box entry subcircuit for sky130_fd_sc_hd__decap_4 abstract view
.subckt sky130_fd_sc_hd__decap_4 VGND VNB VPB VPWR
.ends

* Black-box entry subcircuit for sky130_fd_sc_hd__and3_1 abstract view
.subckt sky130_fd_sc_hd__and3_1 A B C VGND VNB VPB VPWR X
.ends

* Black-box entry subcircuit for sky130_fd_sc_hd__inv_2 abstract view
.subckt sky130_fd_sc_hd__inv_2 A VGND VNB VPB VPWR Y
.ends

* Black-box entry subcircuit for sky130_fd_sc_hd__fill_2 abstract view
.subckt sky130_fd_sc_hd__fill_2 VGND VNB VPB VPWR
.ends

* Black-box entry subcircuit for sky130_fd_sc_hd__and2_1 abstract view
.subckt sky130_fd_sc_hd__and2_1 A B VGND VNB VPB VPWR X
.ends

* Black-box entry subcircuit for sky130_fd_sc_hd__buf_2 abstract view
.subckt sky130_fd_sc_hd__buf_2 A VGND VNB VPB VPWR X
.ends

* Black-box entry subcircuit for sky130_fd_sc_hd__buf_6 abstract view
.subckt sky130_fd_sc_hd__buf_6 A VGND VNB VPB VPWR X
.ends

* Black-box entry subcircuit for sky130_fd_sc_hd__or3_1 abstract view
.subckt sky130_fd_sc_hd__or3_1 A B C VGND VNB VPB VPWR X
.ends

* Black-box entry subcircuit for sky130_fd_sc_hd__a22oi_2 abstract view
.subckt sky130_fd_sc_hd__a22oi_2 A1 A2 B1 B2 VGND VNB VPB VPWR Y
.ends

* Black-box entry subcircuit for sky130_fd_sc_hd__nand2_1 abstract view
.subckt sky130_fd_sc_hd__nand2_1 A B VGND VNB VPB VPWR Y
.ends

* Black-box entry subcircuit for sky130_fd_sc_hd__a31o_1 abstract view
.subckt sky130_fd_sc_hd__a31o_1 A1 A2 A3 B1 VGND VNB VPB VPWR X
.ends

* Black-box entry subcircuit for sky130_fd_sc_hd__o21ai_1 abstract view
.subckt sky130_fd_sc_hd__o21ai_1 A1 A2 B1 VGND VNB VPB VPWR Y
.ends

* Black-box entry subcircuit for sky130_fd_sc_hd__a2bb2o_1 abstract view
.subckt sky130_fd_sc_hd__a2bb2o_1 A1_N A2_N B1 B2 VGND VNB VPB VPWR X
.ends

* Black-box entry subcircuit for sky130_fd_sc_hd__xor2_2 abstract view
.subckt sky130_fd_sc_hd__xor2_2 A B VGND VNB VPB VPWR X
.ends

* Black-box entry subcircuit for sky130_fd_sc_hd__xnor2_4 abstract view
.subckt sky130_fd_sc_hd__xnor2_4 A B VGND VNB VPB VPWR Y
.ends

* Black-box entry subcircuit for sky130_fd_sc_hd__buf_4 abstract view
.subckt sky130_fd_sc_hd__buf_4 A VGND VNB VPB VPWR X
.ends

* Black-box entry subcircuit for sky130_fd_sc_hd__or4bb_4 abstract view
.subckt sky130_fd_sc_hd__or4bb_4 A B C_N D_N VGND VNB VPB VPWR X
.ends

* Black-box entry subcircuit for sky130_fd_sc_hd__o211a_1 abstract view
.subckt sky130_fd_sc_hd__o211a_1 A1 A2 B1 C1 VGND VNB VPB VPWR X
.ends

* Black-box entry subcircuit for sky130_fd_sc_hd__o32a_1 abstract view
.subckt sky130_fd_sc_hd__o32a_1 A1 A2 A3 B1 B2 VGND VNB VPB VPWR X
.ends

* Black-box entry subcircuit for sky130_fd_sc_hd__xor2_1 abstract view
.subckt sky130_fd_sc_hd__xor2_1 A B VGND VNB VPB VPWR X
.ends

* Black-box entry subcircuit for sky130_fd_sc_hd__buf_8 abstract view
.subckt sky130_fd_sc_hd__buf_8 A VGND VNB VPB VPWR X
.ends

* Black-box entry subcircuit for sky130_fd_sc_hd__a21bo_1 abstract view
.subckt sky130_fd_sc_hd__a21bo_1 A1 A2 B1_N VGND VNB VPB VPWR X
.ends

* Black-box entry subcircuit for sky130_fd_sc_hd__a211oi_1 abstract view
.subckt sky130_fd_sc_hd__a211oi_1 A1 A2 B1 C1 VGND VNB VPB VPWR Y
.ends

* Black-box entry subcircuit for sky130_fd_sc_hd__o211a_4 abstract view
.subckt sky130_fd_sc_hd__o211a_4 A1 A2 B1 C1 VGND VNB VPB VPWR X
.ends

* Black-box entry subcircuit for sky130_fd_sc_hd__xnor2_1 abstract view
.subckt sky130_fd_sc_hd__xnor2_1 A B VGND VNB VPB VPWR Y
.ends

* Black-box entry subcircuit for sky130_fd_sc_hd__or3_4 abstract view
.subckt sky130_fd_sc_hd__or3_4 A B C VGND VNB VPB VPWR X
.ends

* Black-box entry subcircuit for sky130_fd_sc_hd__o21a_1 abstract view
.subckt sky130_fd_sc_hd__o21a_1 A1 A2 B1 VGND VNB VPB VPWR X
.ends

* Black-box entry subcircuit for sky130_fd_sc_hd__nand4_1 abstract view
.subckt sky130_fd_sc_hd__nand4_1 A B C D VGND VNB VPB VPWR Y
.ends

* Black-box entry subcircuit for sky130_fd_sc_hd__and2b_1 abstract view
.subckt sky130_fd_sc_hd__and2b_1 A_N B VGND VNB VPB VPWR X
.ends

* Black-box entry subcircuit for sky130_fd_sc_hd__or3b_1 abstract view
.subckt sky130_fd_sc_hd__or3b_1 A B C_N VGND VNB VPB VPWR X
.ends

* Black-box entry subcircuit for sky130_fd_sc_hd__xnor2_2 abstract view
.subckt sky130_fd_sc_hd__xnor2_2 A B VGND VNB VPB VPWR Y
.ends

* Black-box entry subcircuit for sky130_fd_sc_hd__or2_4 abstract view
.subckt sky130_fd_sc_hd__or2_4 A B VGND VNB VPB VPWR X
.ends

* Black-box entry subcircuit for sky130_fd_sc_hd__o21bai_2 abstract view
.subckt sky130_fd_sc_hd__o21bai_2 A1 A2 B1_N VGND VNB VPB VPWR Y
.ends

* Black-box entry subcircuit for sky130_fd_sc_hd__nand3_1 abstract view
.subckt sky130_fd_sc_hd__nand3_1 A B C VGND VNB VPB VPWR Y
.ends

* Black-box entry subcircuit for sky130_fd_sc_hd__or3b_4 abstract view
.subckt sky130_fd_sc_hd__or3b_4 A B C_N VGND VNB VPB VPWR X
.ends

* Black-box entry subcircuit for sky130_fd_sc_hd__a21oi_4 abstract view
.subckt sky130_fd_sc_hd__a21oi_4 A1 A2 B1 VGND VNB VPB VPWR Y
.ends

* Black-box entry subcircuit for sky130_fd_sc_hd__a21oi_1 abstract view
.subckt sky130_fd_sc_hd__a21oi_1 A1 A2 B1 VGND VNB VPB VPWR Y
.ends

* Black-box entry subcircuit for sky130_fd_sc_hd__and3_4 abstract view
.subckt sky130_fd_sc_hd__and3_4 A B C VGND VNB VPB VPWR X
.ends

* Black-box entry subcircuit for sky130_fd_sc_hd__and4b_1 abstract view
.subckt sky130_fd_sc_hd__and4b_1 A_N B C D VGND VNB VPB VPWR X
.ends

* Black-box entry subcircuit for sky130_fd_sc_hd__nand3_2 abstract view
.subckt sky130_fd_sc_hd__nand3_2 A B C VGND VNB VPB VPWR Y
.ends

* Black-box entry subcircuit for sky130_fd_sc_hd__nand4_2 abstract view
.subckt sky130_fd_sc_hd__nand4_2 A B C D VGND VNB VPB VPWR Y
.ends

* Black-box entry subcircuit for sky130_fd_sc_hd__a32o_1 abstract view
.subckt sky130_fd_sc_hd__a32o_1 A1 A2 A3 B1 B2 VGND VNB VPB VPWR X
.ends

* Black-box entry subcircuit for sky130_fd_sc_hd__clkbuf_2 abstract view
.subckt sky130_fd_sc_hd__clkbuf_2 A VGND VNB VPB VPWR X
.ends

* Black-box entry subcircuit for sky130_fd_sc_hd__nor3_2 abstract view
.subckt sky130_fd_sc_hd__nor3_2 A B C VGND VNB VPB VPWR Y
.ends

* Black-box entry subcircuit for sky130_fd_sc_hd__clkbuf_4 abstract view
.subckt sky130_fd_sc_hd__clkbuf_4 A VGND VNB VPB VPWR X
.ends

* Black-box entry subcircuit for sky130_fd_sc_hd__o31ai_1 abstract view
.subckt sky130_fd_sc_hd__o31ai_1 A1 A2 A3 B1 VGND VNB VPB VPWR Y
.ends

* Black-box entry subcircuit for sky130_fd_sc_hd__a21bo_4 abstract view
.subckt sky130_fd_sc_hd__a21bo_4 A1 A2 B1_N VGND VNB VPB VPWR X
.ends

* Black-box entry subcircuit for sky130_fd_sc_hd__and3b_1 abstract view
.subckt sky130_fd_sc_hd__and3b_1 A_N B C VGND VNB VPB VPWR X
.ends

* Black-box entry subcircuit for sky130_fd_sc_hd__or2_2 abstract view
.subckt sky130_fd_sc_hd__or2_2 A B VGND VNB VPB VPWR X
.ends

* Black-box entry subcircuit for sky130_fd_sc_hd__a21o_1 abstract view
.subckt sky130_fd_sc_hd__a21o_1 A1 A2 B1 VGND VNB VPB VPWR X
.ends

* Black-box entry subcircuit for sky130_fd_sc_hd__and2_4 abstract view
.subckt sky130_fd_sc_hd__and2_4 A B VGND VNB VPB VPWR X
.ends

* Black-box entry subcircuit for sky130_fd_sc_hd__o32a_2 abstract view
.subckt sky130_fd_sc_hd__o32a_2 A1 A2 A3 B1 B2 VGND VNB VPB VPWR X
.ends

* Black-box entry subcircuit for sky130_fd_sc_hd__or3_2 abstract view
.subckt sky130_fd_sc_hd__or3_2 A B C VGND VNB VPB VPWR X
.ends

* Black-box entry subcircuit for sky130_fd_sc_hd__nand2b_4 abstract view
.subckt sky130_fd_sc_hd__nand2b_4 A_N B VGND VNB VPB VPWR Y
.ends

* Black-box entry subcircuit for sky130_fd_sc_hd__o311a_4 abstract view
.subckt sky130_fd_sc_hd__o311a_4 A1 A2 A3 B1 C1 VGND VNB VPB VPWR X
.ends

* Black-box entry subcircuit for sky130_fd_sc_hd__nand2b_1 abstract view
.subckt sky130_fd_sc_hd__nand2b_1 A_N B VGND VNB VPB VPWR Y
.ends

* Black-box entry subcircuit for sky130_fd_sc_hd__o2111a_1 abstract view
.subckt sky130_fd_sc_hd__o2111a_1 A1 A2 B1 C1 D1 VGND VNB VPB VPWR X
.ends

* Black-box entry subcircuit for sky130_fd_sc_hd__buf_1 abstract view
.subckt sky130_fd_sc_hd__buf_1 A VGND VNB VPB VPWR X
.ends

* Black-box entry subcircuit for sky130_fd_sc_hd__or3b_2 abstract view
.subckt sky130_fd_sc_hd__or3b_2 A B C_N VGND VNB VPB VPWR X
.ends

* Black-box entry subcircuit for sky130_fd_sc_hd__a21boi_4 abstract view
.subckt sky130_fd_sc_hd__a21boi_4 A1 A2 B1_N VGND VNB VPB VPWR Y
.ends

* Black-box entry subcircuit for sky130_fd_sc_hd__dlymetal6s2s_1 abstract view
.subckt sky130_fd_sc_hd__dlymetal6s2s_1 A VGND VNB VPB VPWR X
.ends

* Black-box entry subcircuit for sky130_fd_sc_hd__o221ai_4 abstract view
.subckt sky130_fd_sc_hd__o221ai_4 A1 A2 B1 B2 C1 VGND VNB VPB VPWR Y
.ends

* Black-box entry subcircuit for sky130_fd_sc_hd__xor2_4 abstract view
.subckt sky130_fd_sc_hd__xor2_4 A B VGND VNB VPB VPWR X
.ends

* Black-box entry subcircuit for sky130_fd_sc_hd__a41o_1 abstract view
.subckt sky130_fd_sc_hd__a41o_1 A1 A2 A3 A4 B1 VGND VNB VPB VPWR X
.ends

* Black-box entry subcircuit for sky130_fd_sc_hd__a22o_1 abstract view
.subckt sky130_fd_sc_hd__a22o_1 A1 A2 B1 B2 VGND VNB VPB VPWR X
.ends

* Black-box entry subcircuit for sky130_fd_sc_hd__o21ai_2 abstract view
.subckt sky130_fd_sc_hd__o21ai_2 A1 A2 B1 VGND VNB VPB VPWR Y
.ends

* Black-box entry subcircuit for sky130_fd_sc_hd__o211ai_1 abstract view
.subckt sky130_fd_sc_hd__o211ai_1 A1 A2 B1 C1 VGND VNB VPB VPWR Y
.ends

.subckt mult8_2bits_1op_e17349 A[0] A[1] A[2] A[3] A[4] A[5] A[6] A[7] B[0] B[1] B[2]
+ B[3] B[4] B[5] B[6] B[7] P[0] P[10] P[11] P[12] P[13] P[14] P[15] P[1] P[2] P[3]
+ P[4] P[5] P[6] P[7] P[8] P[9] VGND VPWR
XFILLER_39_277 VGND VGND VPWR VPWR sky130_fd_sc_hd__decap_3
XTAP_TAPCELL_ROW_37_401 VGND VPWR sky130_fd_sc_hd__tapvpwrvgnd_1
XFILLER_52_29 VPWR VGND VPWR VGND sky130_ef_sc_hd__decap_12
XFILLER_22_177 VPWR VGND VPWR VGND sky130_ef_sc_hd__decap_12
XFILLER_45_269 VGND VGND VPWR VPWR sky130_fd_sc_hd__decap_3
XFILLER_45_225 VGND VGND VPWR VPWR sky130_fd_sc_hd__decap_8
X_432_ _084_ _085_ VGND VGND VPWR VPWR _086_ sky130_fd_sc_hd__nand2_2
X_501_ net6 net47 net15 net38 VGND VGND VPWR VPWR _152_ sky130_fd_sc_hd__and4_1
XFILLER_13_111 VGND VGND VPWR VPWR sky130_fd_sc_hd__fill_1
XFILLER_26_41 VPWR VGND VPWR VGND sky130_ef_sc_hd__decap_12
XFILLER_26_85 VGND VGND VPWR VPWR sky130_fd_sc_hd__decap_8
Xrebuffer7 net47 VGND VGND VPWR VPWR net48 sky130_fd_sc_hd__dlygate4sd1_1
X_363_ _011_ _018_ VGND VGND VPWR VPWR _019_ sky130_fd_sc_hd__nor2_1
X_294_ _225_ _229_ VGND VGND VPWR VPWR _230_ sky130_fd_sc_hd__or2_1
XFILLER_9_137 VPWR VGND VPWR VGND sky130_ef_sc_hd__decap_12
XFILLER_13_199 VGND VGND VPWR VPWR sky130_fd_sc_hd__decap_6
XFILLER_59_317 VPWR VGND VPWR VGND sky130_ef_sc_hd__decap_12
XFILLER_63_39 VPWR VGND VPWR VGND sky130_ef_sc_hd__decap_12
XFILLER_27_225 VGND VGND VPWR VPWR sky130_fd_sc_hd__fill_1
XTAP_TAPCELL_ROW_40_418 VGND VPWR sky130_fd_sc_hd__tapvpwrvgnd_1
XFILLER_2_357 VGND VGND VPWR VPWR sky130_fd_sc_hd__decap_6
XFILLER_12_65 VPWR VGND VPWR VGND sky130_ef_sc_hd__decap_12
XTAP_TAPCELL_ROW_5_173 VGND VPWR sky130_fd_sc_hd__tapvpwrvgnd_1
XFILLER_18_247 VGND VGND VPWR VPWR sky130_fd_sc_hd__decap_4
XFILLER_41_261 VPWR VGND VPWR VGND sky130_ef_sc_hd__decap_12
X_415_ net10 net8 _260_ _067_ VGND VGND VPWR VPWR _069_ sky130_fd_sc_hd__and4_1
XFILLER_26_291 VPWR VGND VPWR VGND sky130_ef_sc_hd__decap_12
X_346_ net58 net39 _243_ VGND VGND VPWR VPWR _002_ sky130_fd_sc_hd__and3_1
X_277_ net41 VGND VGND VPWR VPWR _215_ sky130_fd_sc_hd__inv_2
XFILLER_56_309 VPWR VGND VPWR VGND sky130_ef_sc_hd__decap_12
XFILLER_49_361 VPWR VGND VPWR VGND sky130_ef_sc_hd__decap_12
XTAP_TAPCELL_ROW_19_275 VGND VPWR sky130_fd_sc_hd__tapvpwrvgnd_1
XTAP_TAPCELL_ROW_62_576 VGND VPWR sky130_fd_sc_hd__tapvpwrvgnd_1
XFILLER_20_401 VGND VGND VPWR VPWR sky130_fd_sc_hd__decap_6
XFILLER_59_169 VPWR VGND VPWR VGND sky130_ef_sc_hd__decap_12
XFILLER_59_125 VPWR VGND VPWR VGND sky130_ef_sc_hd__decap_12
XTAP_TAPCELL_ROW_2_154 VGND VPWR sky130_fd_sc_hd__tapvpwrvgnd_1
XTAP_TAPCELL_ROW_53_510 VGND VPWR sky130_fd_sc_hd__tapvpwrvgnd_1
XFILLER_30_209 VGND VGND VPWR VPWR sky130_fd_sc_hd__decap_8
XFILLER_7_405 VGND VGND VPWR VPWR sky130_fd_sc_hd__fill_2
XFILLER_38_309 VPWR VGND VPWR VGND sky130_ef_sc_hd__decap_12
XFILLER_2_165 VPWR VGND VPWR VGND sky130_ef_sc_hd__decap_12
XFILLER_2_121 VPWR VGND VPWR VGND sky130_ef_sc_hd__decap_12
XFILLER_46_397 VGND VGND VPWR VPWR sky130_fd_sc_hd__fill_1
XFILLER_0_57 VPWR VGND VPWR VGND sky130_ef_sc_hd__decap_12
X_329_ _259_ _260_ VGND VGND VPWR VPWR _262_ sky130_fd_sc_hd__and2_1
XFILLER_9_55 VGND VGND VPWR VPWR sky130_fd_sc_hd__fill_1
XFILLER_56_139 VGND VGND VPWR VPWR sky130_fd_sc_hd__fill_1
XFILLER_37_331 VGND VGND VPWR VPWR sky130_fd_sc_hd__decap_4
XFILLER_52_389 VPWR VGND VPWR VGND sky130_ef_sc_hd__decap_12
XFILLER_52_345 VPWR VGND VPWR VGND sky130_ef_sc_hd__decap_12
XFILLER_52_301 VGND VGND VPWR VPWR sky130_fd_sc_hd__decap_6
XFILLER_12_209 VPWR VGND VPWR VGND sky130_ef_sc_hd__decap_12
XFILLER_60_29 VPWR VGND VPWR VGND sky130_ef_sc_hd__decap_12
XFILLER_20_253 VPWR VGND VPWR VGND sky130_ef_sc_hd__decap_12
XFILLER_62_109 VPWR VGND VPWR VGND sky130_ef_sc_hd__decap_12
XFILLER_55_161 VGND VGND VPWR VPWR sky130_fd_sc_hd__decap_6
XFILLER_18_53 VPWR VGND VPWR VGND sky130_ef_sc_hd__decap_12
XFILLER_18_97 VPWR VGND VPWR VGND sky130_ef_sc_hd__decap_12
XFILLER_7_279 VGND VGND VPWR VPWR sky130_fd_sc_hd__fill_1
XFILLER_59_93 VPWR VGND VPWR VGND sky130_ef_sc_hd__decap_12
XFILLER_38_117 VPWR VGND VPWR VGND sky130_ef_sc_hd__decap_12
XFILLER_34_389 VPWR VGND VPWR VGND sky130_ef_sc_hd__decap_12
XFILLER_34_345 VPWR VGND VPWR VGND sky130_ef_sc_hd__decap_12
XFILLER_34_301 VGND VGND VPWR VPWR sky130_fd_sc_hd__decap_6
XFILLER_39_19 VGND VGND VPWR VPWR sky130_fd_sc_hd__decap_4
XFILLER_44_109 VPWR VGND VPWR VGND sky130_ef_sc_hd__decap_12
XFILLER_37_161 VGND VGND VPWR VPWR sky130_fd_sc_hd__decap_6
XTAP_TAPCELL_ROW_27_329 VGND VPWR sky130_fd_sc_hd__tapvpwrvgnd_1
XFILLER_52_197 VPWR VGND VPWR VGND sky130_ef_sc_hd__decap_12
XFILLER_52_186 VGND VGND VPWR VPWR sky130_fd_sc_hd__decap_8
XFILLER_52_153 VGND VGND VPWR VPWR sky130_fd_sc_hd__decap_8
XTAP_TAPCELL_ROW_35_384 VGND VPWR sky130_fd_sc_hd__tapvpwrvgnd_1
XTAP_TAPCELL_ROW_10_207 VGND VPWR sky130_fd_sc_hd__tapvpwrvgnd_1
XFILLER_20_65 VPWR VGND VPWR VGND sky130_ef_sc_hd__decap_12
XFILLER_43_142 VPWR VGND VPWR VGND sky130_ef_sc_hd__decap_12
XFILLER_16_345 VPWR VGND VPWR VGND sky130_ef_sc_hd__decap_12
XFILLER_16_389 VPWR VGND VPWR VGND sky130_ef_sc_hd__decap_12
XFILLER_43_197 VPWR VGND VPWR VGND sky130_ef_sc_hd__decap_12
XFILLER_31_337 VPWR VGND VPWR VGND sky130_ef_sc_hd__decap_12
XFILLER_3_293 VPWR VGND VPWR VGND sky130_ef_sc_hd__decap_12
XFILLER_3_260 VPWR VGND VPWR VGND sky130_ef_sc_hd__decap_12
XFILLER_13_3 VPWR VGND VPWR VGND sky130_ef_sc_hd__decap_12
Xrebuffer17 net56 VGND VGND VPWR VPWR net58 sky130_fd_sc_hd__buf_2
XTAP_TAPCELL_ROW_32_365 VGND VPWR sky130_fd_sc_hd__tapvpwrvgnd_1
XFILLER_57_223 VGND VGND VPWR VPWR sky130_fd_sc_hd__fill_1
XFILLER_1_208 VPWR VGND VPWR VGND sky130_ef_sc_hd__decap_12
XFILLER_13_337 VPWR VGND VPWR VGND sky130_ef_sc_hd__decap_12
Xoutput20 net20 VGND VGND VPWR VPWR P[12] sky130_fd_sc_hd__buf_6
Xoutput31 net31 VGND VGND VPWR VPWR P[8] sky130_fd_sc_hd__buf_6
XFILLER_63_237 VPWR VGND VPWR VGND sky130_ef_sc_hd__decap_12
XFILLER_56_83 VGND VGND VPWR VPWR sky130_fd_sc_hd__fill_1
XFILLER_48_289 VPWR VGND VPWR VGND sky130_ef_sc_hd__decap_12
XFILLER_48_245 VGND VGND VPWR VPWR sky130_fd_sc_hd__decap_6
XFILLER_31_167 VGND VGND VPWR VPWR sky130_fd_sc_hd__fill_1
XFILLER_31_101 VGND VGND VPWR VPWR sky130_fd_sc_hd__decap_8
XFILLER_16_153 VPWR VGND VPWR VGND sky130_ef_sc_hd__decap_12
XFILLER_16_197 VGND VGND VPWR VPWR sky130_fd_sc_hd__decap_4
XFILLER_8_363 VGND VGND VPWR VPWR sky130_fd_sc_hd__fill_1
XFILLER_39_223 VGND VGND VPWR VPWR sky130_fd_sc_hd__fill_1
XTAP_TAPCELL_ROW_37_402 VGND VPWR sky130_fd_sc_hd__tapvpwrvgnd_1
XFILLER_10_307 VGND VGND VPWR VPWR sky130_fd_sc_hd__fill_1
XFILLER_22_112 VGND VGND VPWR VPWR sky130_fd_sc_hd__decap_8
XFILLER_22_189 VGND VGND VPWR VPWR sky130_fd_sc_hd__decap_6
X_500_ _150_ VGND VGND VPWR VPWR _151_ sky130_fd_sc_hd__inv_2
XFILLER_53_281 VPWR VGND VPWR VGND sky130_ef_sc_hd__decap_12
XTAP_TAPCELL_ROW_43_438 VGND VPWR sky130_fd_sc_hd__tapvpwrvgnd_1
X_431_ _049_ _051_ _083_ VGND VGND VPWR VPWR _085_ sky130_fd_sc_hd__or3_1
XFILLER_9_105 VGND VGND VPWR VPWR sky130_fd_sc_hd__decap_6
XFILLER_13_167 VGND VGND VPWR VPWR sky130_fd_sc_hd__fill_1
X_362_ _012_ _014_ _016_ _017_ VGND VGND VPWR VPWR _018_ sky130_fd_sc_hd__a22oi_2
XFILLER_26_53 VPWR VGND VPWR VGND sky130_ef_sc_hd__decap_12
XFILLER_42_85 VPWR VGND VPWR VGND sky130_ef_sc_hd__decap_12
XFILLER_42_41 VGND VGND VPWR VPWR sky130_fd_sc_hd__decap_4
Xrebuffer8 net47 VGND VGND VPWR VPWR net49 sky130_fd_sc_hd__dlygate4sd1_1
X_293_ _227_ _228_ VGND VGND VPWR VPWR _229_ sky130_fd_sc_hd__nand2_1
XFILLER_9_149 VPWR VGND VPWR VGND sky130_ef_sc_hd__decap_12
XFILLER_13_189 VGND VGND VPWR VPWR sky130_fd_sc_hd__decap_3
XFILLER_3_57 VPWR VGND VPWR VGND sky130_ef_sc_hd__decap_12
XTAP_TAPCELL_ROW_8_193 VGND VPWR sky130_fd_sc_hd__tapvpwrvgnd_1
XFILLER_44_270 VPWR VGND VPWR VGND sky130_ef_sc_hd__decap_12
XFILLER_59_329 VGND VGND VPWR VPWR sky130_fd_sc_hd__decap_6
XFILLER_50_251 VGND VGND VPWR VPWR sky130_fd_sc_hd__fill_1
XFILLER_35_281 VPWR VGND VPWR VGND sky130_ef_sc_hd__decap_12
XPHY_EDGE_ROW_19_Left_84 VGND VGND VPWR VPWR sky130_fd_sc_hd__decap_3
XTAP_TAPCELL_ROW_40_419 VGND VPWR sky130_fd_sc_hd__tapvpwrvgnd_1
XFILLER_12_77 VGND VGND VPWR VPWR sky130_fd_sc_hd__decap_6
XTAP_TAPCELL_ROW_56_530 VGND VPWR sky130_fd_sc_hd__tapvpwrvgnd_1
XFILLER_37_96 VPWR VGND VPWR VGND sky130_ef_sc_hd__decap_12
XTAP_TAPCELL_ROW_5_174 VGND VPWR sky130_fd_sc_hd__tapvpwrvgnd_1
XFILLER_53_51 VGND VGND VPWR VPWR sky130_fd_sc_hd__decap_4
XFILLER_41_273 VGND VGND VPWR VPWR sky130_fd_sc_hd__decap_6
X_414_ net10 net8 _260_ _067_ VGND VGND VPWR VPWR _068_ sky130_fd_sc_hd__a31o_1
X_345_ net56 net39 VGND VGND VPWR VPWR _001_ sky130_fd_sc_hd__nand2_1
XFILLER_49_373 VPWR VGND VPWR VGND sky130_ef_sc_hd__decap_12
XFILLER_1_391 VGND VGND VPWR VPWR sky130_fd_sc_hd__fill_1
XFILLER_64_365 VPWR VGND VPWR VGND sky130_ef_sc_hd__decap_12
XFILLER_64_321 VPWR VGND VPWR VGND sky130_ef_sc_hd__decap_12
XFILLER_32_240 VPWR VGND VPWR VGND sky130_ef_sc_hd__decap_12
XFILLER_17_281 VPWR VGND VPWR VGND sky130_ef_sc_hd__decap_12
XTAP_TAPCELL_ROW_19_276 VGND VPWR sky130_fd_sc_hd__tapvpwrvgnd_1
XTAP_TAPCELL_ROW_62_577 VGND VPWR sky130_fd_sc_hd__tapvpwrvgnd_1
XFILLER_59_137 VPWR VGND VPWR VGND sky130_ef_sc_hd__decap_12
XFILLER_58_29 VPWR VGND VPWR VGND sky130_ef_sc_hd__decap_12
XPHY_EDGE_ROW_12_Right_12 VGND VGND VPWR VPWR sky130_fd_sc_hd__decap_3
XTAP_TAPCELL_ROW_2_155 VGND VPWR sky130_fd_sc_hd__tapvpwrvgnd_1
XPHY_EDGE_ROW_21_Right_21 VGND VGND VPWR VPWR sky130_fd_sc_hd__decap_3
XTAP_TAPCELL_ROW_53_511 VGND VPWR sky130_fd_sc_hd__tapvpwrvgnd_1
XPHY_EDGE_ROW_4_Left_69 VGND VGND VPWR VPWR sky130_fd_sc_hd__decap_3
XFILLER_23_240 VPWR VGND VPWR VGND sky130_ef_sc_hd__decap_12
XPHY_EDGE_ROW_30_Right_30 VGND VGND VPWR VPWR sky130_fd_sc_hd__decap_3
XFILLER_48_40 VPWR VGND VPWR VGND sky130_ef_sc_hd__decap_12
XFILLER_2_133 VGND VGND VPWR VPWR sky130_fd_sc_hd__decap_6
XFILLER_61_335 VGND VGND VPWR VPWR sky130_fd_sc_hd__fill_1
XFILLER_46_365 VPWR VGND VPWR VGND sky130_ef_sc_hd__decap_12
XFILLER_46_321 VPWR VGND VPWR VGND sky130_ef_sc_hd__decap_12
XFILLER_0_69 VPWR VGND VPWR VGND sky130_ef_sc_hd__decap_12
XFILLER_14_240 VGND VGND VPWR VPWR sky130_fd_sc_hd__decap_6
X_328_ _259_ _260_ VGND VGND VPWR VPWR _261_ sky130_fd_sc_hd__nor2_1
XFILLER_43_3 VPWR VGND VPWR VGND sky130_ef_sc_hd__decap_12
XFILLER_49_181 VPWR VGND VPWR VGND sky130_ef_sc_hd__decap_12
XFILLER_64_195 VGND VGND VPWR VPWR sky130_fd_sc_hd__fill_1
XFILLER_52_357 VGND VGND VPWR VPWR sky130_fd_sc_hd__decap_6
XFILLER_20_221 VPWR VGND VPWR VGND sky130_ef_sc_hd__decap_12
XFILLER_20_265 VPWR VGND VPWR VGND sky130_ef_sc_hd__decap_12
XFILLER_43_335 VGND VGND VPWR VPWR sky130_fd_sc_hd__fill_1
XFILLER_28_365 VPWR VGND VPWR VGND sky130_ef_sc_hd__decap_12
XFILLER_28_321 VPWR VGND VPWR VGND sky130_ef_sc_hd__decap_12
XFILLER_18_65 VPWR VGND VPWR VGND sky130_ef_sc_hd__decap_12
XFILLER_50_41 VPWR VGND VPWR VGND sky130_ef_sc_hd__decap_12
XFILLER_7_225 VPWR VGND VPWR VGND sky130_ef_sc_hd__decap_12
XFILLER_50_85 VPWR VGND VPWR VGND sky130_ef_sc_hd__decap_12
XFILLER_38_129 VGND VGND VPWR VPWR sky130_fd_sc_hd__decap_8
XFILLER_46_195 VGND VGND VPWR VPWR sky130_fd_sc_hd__fill_1
XFILLER_34_357 VGND VGND VPWR VPWR sky130_fd_sc_hd__decap_6
XFILLER_57_405 VGND VGND VPWR VPWR sky130_fd_sc_hd__fill_2
XFILLER_52_121 VPWR VGND VPWR VGND sky130_ef_sc_hd__decap_12
XFILLER_37_184 VPWR VGND VPWR VGND sky130_ef_sc_hd__decap_12
XFILLER_37_173 VGND VGND VPWR VPWR sky130_fd_sc_hd__fill_1
XFILLER_25_335 VGND VGND VPWR VPWR sky130_fd_sc_hd__fill_1
XTAP_TAPCELL_ROW_35_385 VGND VPWR sky130_fd_sc_hd__tapvpwrvgnd_1
XTAP_TAPCELL_ROW_10_208 VGND VPWR sky130_fd_sc_hd__tapvpwrvgnd_1
XFILLER_4_217 VGND VGND VPWR VPWR sky130_fd_sc_hd__decap_3
XFILLER_20_77 VGND VGND VPWR VPWR sky130_fd_sc_hd__decap_6
XFILLER_43_154 VPWR VGND VPWR VGND sky130_ef_sc_hd__decap_12
XFILLER_31_349 VPWR VGND VPWR VGND sky130_ef_sc_hd__decap_12
XFILLER_31_305 VPWR VGND VPWR VGND sky130_ef_sc_hd__decap_12
XFILLER_28_173 VPWR VGND VPWR VGND sky130_ef_sc_hd__decap_12
XFILLER_16_357 VGND VGND VPWR VPWR sky130_fd_sc_hd__decap_6
XFILLER_61_51 VGND VGND VPWR VPWR sky130_fd_sc_hd__decap_4
XPHY_EDGE_ROW_7_Left_72 VGND VGND VPWR VPWR sky130_fd_sc_hd__decap_3
XFILLER_3_272 VGND VGND VPWR VPWR sky130_fd_sc_hd__decap_8
Xrebuffer18 net41 VGND VGND VPWR VPWR net59 sky130_fd_sc_hd__dlygate4sd1_1
XFILLER_19_140 VPWR VGND VPWR VGND sky130_ef_sc_hd__decap_12
XTAP_TAPCELL_ROW_32_366 VGND VPWR sky130_fd_sc_hd__tapvpwrvgnd_1
XPHY_EDGE_ROW_6_Right_6 VGND VGND VPWR VPWR sky130_fd_sc_hd__decap_3
XFILLER_57_279 VGND VGND VPWR VPWR sky130_fd_sc_hd__fill_1
XFILLER_13_305 VPWR VGND VPWR VGND sky130_ef_sc_hd__decap_12
XFILLER_13_349 VPWR VGND VPWR VGND sky130_ef_sc_hd__decap_12
XFILLER_15_55 VGND VGND VPWR VPWR sky130_fd_sc_hd__fill_1
XTAP_TAPCELL_ROW_23_300 VGND VPWR sky130_fd_sc_hd__tapvpwrvgnd_1
XFILLER_21_393 VPWR VGND VPWR VGND sky130_ef_sc_hd__decap_12
Xoutput21 net21 VGND VGND VPWR VPWR P[13] sky130_fd_sc_hd__buf_6
Xoutput32 net32 VGND VGND VPWR VPWR P[9] sky130_fd_sc_hd__buf_6
XPHY_EDGE_ROW_33_Left_98 VGND VGND VPWR VPWR sky130_fd_sc_hd__decap_3
XFILLER_0_253 VPWR VGND VPWR VGND sky130_ef_sc_hd__decap_12
XFILLER_63_249 VPWR VGND VPWR VGND sky130_ef_sc_hd__decap_12
XFILLER_63_205 VPWR VGND VPWR VGND sky130_ef_sc_hd__decap_12
XFILLER_16_121 VPWR VGND VPWR VGND sky130_ef_sc_hd__decap_12
XPHY_EDGE_ROW_59_Right_59 VGND VGND VPWR VPWR sky130_fd_sc_hd__decap_3
XFILLER_31_113 VPWR VGND VPWR VGND sky130_ef_sc_hd__decap_12
XFILLER_16_165 VPWR VGND VPWR VGND sky130_ef_sc_hd__decap_12
XFILLER_39_257 VPWR VGND VPWR VGND sky130_ef_sc_hd__decap_12
XFILLER_45_249 VPWR VGND VPWR VGND sky130_ef_sc_hd__decap_12
XFILLER_53_293 VPWR VGND VPWR VGND sky130_ef_sc_hd__decap_12
XTAP_TAPCELL_ROW_43_439 VGND VPWR sky130_fd_sc_hd__tapvpwrvgnd_1
X_430_ _049_ _051_ _083_ VGND VGND VPWR VPWR _084_ sky130_fd_sc_hd__o21ai_1
X_292_ net17 _223_ _226_ net11 VGND VGND VPWR VPWR _228_ sky130_fd_sc_hd__a2bb2o_1
XFILLER_13_113 VPWR VGND VPWR VGND sky130_ef_sc_hd__decap_12
X_361_ _012_ _014_ VGND VGND VPWR VPWR _017_ sky130_fd_sc_hd__xor2_2
XFILLER_26_65 VPWR VGND VPWR VGND sky130_ef_sc_hd__decap_12
XTAP_TAPCELL_ROW_51_494 VGND VPWR sky130_fd_sc_hd__tapvpwrvgnd_1
Xrebuffer9 net34 VGND VGND VPWR VPWR net50 sky130_fd_sc_hd__dlygate4sd1_1
XFILLER_42_97 VPWR VGND VPWR VGND sky130_ef_sc_hd__decap_12
XFILLER_3_69 VPWR VGND VPWR VGND sky130_ef_sc_hd__decap_12
XTAP_TAPCELL_ROW_8_194 VGND VPWR sky130_fd_sc_hd__tapvpwrvgnd_1
XTAP_TAPCELL_ROW_59_550 VGND VPWR sky130_fd_sc_hd__tapvpwrvgnd_1
XFILLER_44_282 VPWR VGND VPWR VGND sky130_ef_sc_hd__decap_12
XFILLER_36_227 VPWR VGND VPWR VGND sky130_ef_sc_hd__decap_12
X_559_ _206_ _207_ VGND VGND VPWR VPWR net21 sky130_fd_sc_hd__nor2_1
XFILLER_8_194 VGND VGND VPWR VPWR sky130_fd_sc_hd__fill_2
XFILLER_35_293 VPWR VGND VPWR VGND sky130_ef_sc_hd__decap_12
XFILLER_6_109 VPWR VGND VPWR VGND sky130_ef_sc_hd__decap_12
XFILLER_58_363 VGND VGND VPWR VPWR sky130_fd_sc_hd__fill_1
XTAP_TAPCELL_ROW_56_531 VGND VPWR sky130_fd_sc_hd__tapvpwrvgnd_1
X_413_ net11 net33 VGND VGND VPWR VPWR _067_ sky130_fd_sc_hd__and2_1
XTAP_TAPCELL_ROW_5_175 VGND VPWR sky130_fd_sc_hd__tapvpwrvgnd_1
XFILLER_18_227 VGND VGND VPWR VPWR sky130_fd_sc_hd__fill_1
X_344_ _276_ _275_ VGND VGND VPWR VPWR _000_ sky130_fd_sc_hd__xnor2_4
XFILLER_64_333 VGND VGND VPWR VPWR sky130_fd_sc_hd__decap_3
XFILLER_49_385 VGND VGND VPWR VPWR sky130_fd_sc_hd__decap_6
XFILLER_64_377 VPWR VGND VPWR VGND sky130_ef_sc_hd__decap_12
XFILLER_17_293 VPWR VGND VPWR VGND sky130_ef_sc_hd__decap_12
XPHY_EDGE_ROW_20_Left_85 VGND VGND VPWR VPWR sky130_fd_sc_hd__decap_3
XFILLER_59_149 VPWR VGND VPWR VGND sky130_ef_sc_hd__decap_12
XFILLER_59_105 VGND VGND VPWR VPWR sky130_fd_sc_hd__decap_6
XTAP_TAPCELL_ROW_53_512 VGND VPWR sky130_fd_sc_hd__tapvpwrvgnd_1
XTAP_TAPCELL_ROW_2_156 VGND VPWR sky130_fd_sc_hd__tapvpwrvgnd_1
XFILLER_23_55 VGND VGND VPWR VPWR sky130_fd_sc_hd__fill_1
XFILLER_23_252 VPWR VGND VPWR VGND sky130_ef_sc_hd__decap_12
XFILLER_3_3 VPWR VGND VPWR VGND sky130_ef_sc_hd__decap_12
XFILLER_48_85 VGND VGND VPWR VPWR sky130_fd_sc_hd__decap_6
XFILLER_48_52 VGND VGND VPWR VPWR sky130_fd_sc_hd__decap_8
XFILLER_46_333 VPWR VGND VPWR VGND sky130_ef_sc_hd__decap_12
XFILLER_0_15 VPWR VGND VPWR VGND sky130_ef_sc_hd__decap_12
XFILLER_46_377 VPWR VGND VPWR VGND sky130_ef_sc_hd__decap_12
X_327_ net9 net33 VGND VGND VPWR VPWR _260_ sky130_fd_sc_hd__nand2_2
XFILLER_9_57 VPWR VGND VPWR VGND sky130_ef_sc_hd__decap_12
XFILLER_64_141 VPWR VGND VPWR VGND sky130_ef_sc_hd__decap_12
XFILLER_49_193 VPWR VGND VPWR VGND sky130_ef_sc_hd__decap_12
XFILLER_20_233 VPWR VGND VPWR VGND sky130_ef_sc_hd__decap_12
XFILLER_20_277 VPWR VGND VPWR VGND sky130_ef_sc_hd__decap_12
XFILLER_28_333 VPWR VGND VPWR VGND sky130_ef_sc_hd__decap_12
XFILLER_34_43 VGND VGND VPWR VPWR sky130_fd_sc_hd__decap_6
XFILLER_28_377 VPWR VGND VPWR VGND sky130_ef_sc_hd__decap_12
XFILLER_18_77 VGND VGND VPWR VPWR sky130_fd_sc_hd__decap_6
XFILLER_51_391 VGND VGND VPWR VPWR sky130_fd_sc_hd__fill_1
XFILLER_50_53 VGND VGND VPWR VPWR sky130_fd_sc_hd__decap_6
XFILLER_7_237 VPWR VGND VPWR VGND sky130_ef_sc_hd__decap_12
XFILLER_11_222 VGND VGND VPWR VPWR sky130_fd_sc_hd__fill_2
XTAP_TAPCELL_ROW_13_228 VGND VPWR sky130_fd_sc_hd__tapvpwrvgnd_1
XFILLER_59_51 VGND VGND VPWR VPWR sky130_fd_sc_hd__decap_4
XFILLER_50_97 VPWR VGND VPWR VGND sky130_ef_sc_hd__decap_12
XFILLER_46_141 VPWR VGND VPWR VGND sky130_ef_sc_hd__decap_12
XFILLER_61_111 VGND VGND VPWR VPWR sky130_fd_sc_hd__fill_1
XFILLER_52_133 VGND VGND VPWR VPWR sky130_fd_sc_hd__decap_6
XFILLER_37_196 VPWR VGND VPWR VGND sky130_ef_sc_hd__decap_12
XTAP_TAPCELL_ROW_35_386 VGND VPWR sky130_fd_sc_hd__tapvpwrvgnd_1
XFILLER_33_391 VGND VGND VPWR VPWR sky130_fd_sc_hd__fill_1
XTAP_TAPCELL_ROW_10_209 VGND VPWR sky130_fd_sc_hd__tapvpwrvgnd_1
XPHY_EDGE_ROW_42_Left_107 VGND VGND VPWR VPWR sky130_fd_sc_hd__decap_3
XFILLER_28_141 VPWR VGND VPWR VGND sky130_ef_sc_hd__decap_12
XPHY_EDGE_ROW_51_Left_116 VGND VGND VPWR VPWR sky130_fd_sc_hd__decap_3
XFILLER_45_64 VPWR VGND VPWR VGND sky130_ef_sc_hd__decap_12
XFILLER_43_177 VGND VGND VPWR VPWR sky130_fd_sc_hd__fill_1
XFILLER_43_166 VGND VGND VPWR VPWR sky130_fd_sc_hd__fill_2
XFILLER_31_317 VPWR VGND VPWR VGND sky130_ef_sc_hd__decap_12
XFILLER_28_185 VGND VGND VPWR VPWR sky130_fd_sc_hd__decap_8
XTAP_TAPCELL_ROW_26_320 VGND VPWR sky130_fd_sc_hd__tapvpwrvgnd_1
XPHY_EDGE_ROW_60_Left_125 VGND VGND VPWR VPWR sky130_fd_sc_hd__decap_3
Xrebuffer19 net33 VGND VGND VPWR VPWR net60 sky130_fd_sc_hd__dlygate4sd1_1
XFILLER_34_100 VPWR VGND VPWR VGND sky130_ef_sc_hd__decap_12
XFILLER_19_152 VGND VGND VPWR VPWR sky130_fd_sc_hd__decap_8
XTAP_TAPCELL_ROW_32_367 VGND VPWR sky130_fd_sc_hd__tapvpwrvgnd_1
XFILLER_15_391 VGND VGND VPWR VPWR sky130_fd_sc_hd__fill_1
XFILLER_57_225 VPWR VGND VPWR VGND sky130_ef_sc_hd__decap_12
XFILLER_13_317 VPWR VGND VPWR VGND sky130_ef_sc_hd__decap_12
XTAP_TAPCELL_ROW_23_301 VGND VPWR sky130_fd_sc_hd__tapvpwrvgnd_1
XFILLER_25_166 VGND VGND VPWR VPWR sky130_fd_sc_hd__fill_2
XFILLER_31_55 VGND VGND VPWR VPWR sky130_fd_sc_hd__fill_1
XFILLER_21_361 VPWR VGND VPWR VGND sky130_ef_sc_hd__decap_12
Xoutput22 net22 VGND VGND VPWR VPWR P[14] sky130_fd_sc_hd__buf_4
XFILLER_0_265 VGND VGND VPWR VPWR sky130_fd_sc_hd__decap_4