*SPEF "ieee 1481-1999"
*DESIGN "mult4_SARSA_RUIDO_e9_SARSANPASOS_VENTAJA_RUIDO_e8_SARSA_RUIDO_e9_SARSA_RUIDO_e9"
*DATE "14:23:49 Tuesday September 16, 2025"
*VENDOR "The OpenROAD Project"
*PROGRAM "OpenROAD"
*VERSION "edf00dff99f6c40d67a30c0e22a8191c5d2ed9d6"
*DESIGN_FLOW "NAME_SCOPE LOCAL" "PIN_CAP NONE"
*DIVIDER /
*DELIMITER :
*BUS_DELIMITER []
*T_UNIT 1 NS
*C_UNIT 1 PF
*R_UNIT 1 OHM
*L_UNIT 1 HENRY

*NAME_MAP
*1 A[0]
*2 A[1]
*3 A[2]
*4 A[3]
*5 B[0]
*6 B[1]
*7 B[2]
*8 B[3]
*9 P[0]
*10 P[1]
*11 P[2]
*12 P[3]
*13 P[4]
*14 P[5]
*15 P[6]
*16 P[7]
*19 _00_
*20 _01_
*21 _02_
*22 _03_
*23 _04_
*24 _05_
*25 _06_
*26 _07_
*27 _08_
*28 _09_
*29 _10_
*30 _11_
*31 _12_
*32 _13_
*33 _14_
*34 _15_
*35 _16_
*36 _17_
*37 _18_
*38 _19_
*39 _20_
*40 _21_
*41 _22_
*42 _23_
*43 mul_ll\.pp1
*44 mul_ll\.pp2
*45 net1
*46 net10
*47 net11
*48 net12
*49 net13
*50 net14
*51 net15
*52 net16
*53 net2
*54 net3
*55 net4
*56 net5
*57 net6
*58 net7
*59 net8
*60 net9
*61 FILLER_0_15
*62 FILLER_0_27
*63 FILLER_0_29
*64 FILLER_0_3
*65 FILLER_0_34
*66 FILLER_0_42
*67 FILLER_0_48
*68 FILLER_0_55
*69 FILLER_0_57
*70 FILLER_0_69
*71 FILLER_1_15
*72 FILLER_1_27
*73 FILLER_1_3
*74 FILLER_1_41
*75 FILLER_1_45
*76 FILLER_1_49
*77 FILLER_1_55
*78 FILLER_1_57
*79 FILLER_1_69
*80 FILLER_2_15
*81 FILLER_2_25
*82 FILLER_2_29
*83 FILLER_2_41
*84 FILLER_2_49
*85 FILLER_2_57
*86 FILLER_2_69
*87 FILLER_2_7
*88 FILLER_3_11
*89 FILLER_3_16
*90 FILLER_3_3
*91 FILLER_3_34
*92 FILLER_3_46
*93 FILLER_3_54
*94 FILLER_3_66
*95 FILLER_3_78
*96 FILLER_4_22
*97 FILLER_4_34
*98 FILLER_4_46
*99 FILLER_4_57
*100 FILLER_4_69
*101 FILLER_4_7
*102 FILLER_4_77
*103 FILLER_5_18
*104 FILLER_5_25
*105 FILLER_5_37
*106 FILLER_5_45
*107 FILLER_5_6
*108 FILLER_5_64
*109 FILLER_5_76
*110 FILLER_6_13
*111 FILLER_6_21
*112 FILLER_6_34
*113 FILLER_6_46
*114 FILLER_6_62
*115 FILLER_6_74
*116 FILLER_7_27
*117 FILLER_7_36
*118 FILLER_7_48
*119 FILLER_7_54
*120 FILLER_7_57
*121 FILLER_7_69
*122 FILLER_7_7
*123 FILLER_8_15
*124 FILLER_8_27
*125 FILLER_8_29
*126 FILLER_8_3
*127 FILLER_8_41
*128 FILLER_8_45
*129 FILLER_8_58
*130 FILLER_8_70
*131 FILLER_8_78
*132 FILLER_9_15
*133 FILLER_9_27
*134 FILLER_9_29
*135 FILLER_9_3
*136 FILLER_9_35
*137 FILLER_9_47
*138 FILLER_9_51
*139 FILLER_9_57
*140 FILLER_9_63
*141 FILLER_9_75
*142 PHY_EDGE_ROW_0_Left_10
*143 PHY_EDGE_ROW_0_Right_0
*144 PHY_EDGE_ROW_1_Left_11
*145 PHY_EDGE_ROW_1_Right_1
*146 PHY_EDGE_ROW_2_Left_12
*147 PHY_EDGE_ROW_2_Right_2
*148 PHY_EDGE_ROW_3_Left_13
*149 PHY_EDGE_ROW_3_Right_3
*150 PHY_EDGE_ROW_4_Left_14
*151 PHY_EDGE_ROW_4_Right_4
*152 PHY_EDGE_ROW_5_Left_15
*153 PHY_EDGE_ROW_5_Right_5
*154 PHY_EDGE_ROW_6_Left_16
*155 PHY_EDGE_ROW_6_Right_6
*156 PHY_EDGE_ROW_7_Left_17
*157 PHY_EDGE_ROW_7_Right_7
*158 PHY_EDGE_ROW_8_Left_18
*159 PHY_EDGE_ROW_8_Right_8
*160 PHY_EDGE_ROW_9_Left_19
*161 PHY_EDGE_ROW_9_Right_9
*162 TAP_TAPCELL_ROW_0_20
*163 TAP_TAPCELL_ROW_0_21
*164 TAP_TAPCELL_ROW_1_22
*165 TAP_TAPCELL_ROW_2_23
*166 TAP_TAPCELL_ROW_3_24
*167 TAP_TAPCELL_ROW_4_25
*168 TAP_TAPCELL_ROW_5_26
*169 TAP_TAPCELL_ROW_6_27
*170 TAP_TAPCELL_ROW_7_28
*171 TAP_TAPCELL_ROW_8_29
*172 TAP_TAPCELL_ROW_9_30
*173 TAP_TAPCELL_ROW_9_31
*174 _24_
*175 _25_
*176 _26_
*177 _27_
*178 _28_
*179 _29_
*180 _30_
*181 _31_
*182 _32_
*183 _33_
*184 _34_
*185 _35_
*186 _36_
*187 _37_
*188 _38_
*189 _39_
*190 _40_
*191 _41_
*192 _42_
*193 _43_
*194 _44_
*195 _45_
*196 _46_
*197 _47_
*198 _48_
*199 _49_
*200 _50_
*201 _51_
*202 _52_
*203 _53_
*204 _54_
*205 _55_
*206 _56_
*207 _57_
*208 input1
*209 input2
*210 input3
*211 input4
*212 input5
*213 input6
*214 input7
*215 input8
*216 output10
*217 output11
*218 output12
*219 output13
*220 output14
*221 output15
*222 output16
*223 output9

*PORTS
A[0] I
A[1] I
A[2] I
A[3] I
B[0] I
B[1] I
B[2] I
B[3] I
P[0] O
P[1] O
P[2] O
P[3] O
P[4] O
P[5] O
P[6] O
P[7] O

*D_NET *1 0.00084331
*CONN
*P A[0] I
*I *208:A I *D sky130_fd_sc_hd__clkbuf_1
*CAP
1 A[0] 0.000421655
2 *208:A 0.000421655
3 *208:A P[0] 0
*RES
1 A[0] *208:A 21.8357 
*END

*D_NET *2 0.00064005
*CONN
*P A[1] I
*I *209:A I *D sky130_fd_sc_hd__buf_1
*CAP
1 A[1] 0.000235577
2 *209:A 0.000235577
3 *209:A P[2] 8.57347e-05
4 *209:A *214:A 8.31618e-05
*RES
1 A[1] *209:A 19.9443 
*END

*D_NET *3 0.000843809
*CONN
*P A[2] I
*I *210:A I *D sky130_fd_sc_hd__buf_1
*CAP
1 A[2] 0.000412259
2 *210:A 0.000412259
3 *210:A *212:A 0
4 *210:A *54:10 1.92905e-05
*RES
1 A[2] *210:A 21.8357 
*END

*D_NET *4 0.000506863
*CONN
*P A[3] I
*I *211:A I *D sky130_fd_sc_hd__buf_1
*CAP
1 A[3] 0.00021185
2 *211:A 0.00021185
3 *211:A *214:A 8.31618e-05
*RES
1 A[3] *211:A 18.73 
*END

*D_NET *5 0.000822102
*CONN
*P B[0] I
*I *212:A I *D sky130_fd_sc_hd__clkbuf_1
*CAP
1 B[0] 0.000411051
2 *212:A 0.000411051
3 *212:A P[0] 0
4 *212:A *223:A 0
5 *210:A *212:A 0
*RES
1 B[0] *212:A 21.9607 
*END

*D_NET *6 0.000670164
*CONN
*P B[1] I
*I *213:A I *D sky130_fd_sc_hd__buf_1
*CAP
1 B[1] 0.000305702
2 *213:A 0.000305702
3 *213:A P[1] 2.99915e-05
4 *213:A *215:A 2.87684e-05
*RES
1 B[1] *213:A 21.391 
*END

*D_NET *7 0.000618192
*CONN
*P B[2] I
*I *214:A I *D sky130_fd_sc_hd__buf_1
*CAP
1 B[2] 0.000225934
2 *214:A 0.000225934
3 *209:A *214:A 8.31618e-05
4 *211:A *214:A 8.31618e-05
*RES
1 B[2] *214:A 19.6407 
*END

*D_NET *8 0.000534185
*CONN
*P B[3] I
*I *215:A I *D sky130_fd_sc_hd__dlymetal6s2s_1
*CAP
1 B[3] 0.000236739
2 *215:A 0.000236739
3 *215:A P[4] 3.19385e-05
4 *213:A *215:A 2.87684e-05
*RES
1 B[3] *215:A 18.73 
*END

*D_NET *9 0.000950873
*CONN
*P P[0] O
*I *223:X O *D sky130_fd_sc_hd__buf_2
*CAP
1 P[0] 0.000475437
2 *223:X 0.000475437
3 *208:A P[0] 0
4 *212:A P[0] 0
*RES
1 *223:X P[0] 22.05 
*END

*D_NET *10 0.000779072
*CONN
*P P[1] O
*I *216:X O *D sky130_fd_sc_hd__buf_2
*CAP
1 P[1] 0.000359545
2 *216:X 0.000359545
3 P[1] P[3] 2.99915e-05
4 P[1] *216:A 0
5 *213:A P[1] 2.99915e-05
*RES
1 *216:X P[1] 21.4981 
*END

*D_NET *11 0.000512267
*CONN
*P P[2] O
*I *217:X O *D sky130_fd_sc_hd__buf_2
*CAP
1 P[2] 0.000213266
2 *217:X 0.000213266
3 *209:A P[2] 8.57347e-05
*RES
1 *217:X P[2] 18.4985 
*END

*D_NET *12 0.000635508
*CONN
*P P[3] O
*I *218:X O *D sky130_fd_sc_hd__buf_2
*CAP
1 P[3] 0.000302758
2 *218:X 0.000302758
3 P[1] P[3] 2.99915e-05
*RES
1 *218:X P[3] 20.891 
*END

*D_NET *13 0.00072306
*CONN
*P P[4] O
*I *219:X O *D sky130_fd_sc_hd__buf_2
*CAP
1 P[4] 0.000345561
2 *219:X 0.000345561
3 *215:A P[4] 3.19385e-05
*RES
1 *219:X P[4] 20.891 
*END

*D_NET *14 0.0010184
*CONN
*P P[5] O
*I *220:X O *D sky130_fd_sc_hd__buf_2
*CAP
1 P[5] 0.000509199
2 *220:X 0.000509199
*RES
1 *220:X P[5] 23.3893 
*END

*D_NET *15 0.000951893
*CONN
*P P[6] O
*I *221:X O *D sky130_fd_sc_hd__buf_2
*CAP
1 P[6] 0.000475946
2 *221:X 0.000475946
3 P[6] P[7] 0
*RES
1 *221:X P[6] 23.2643 
*END

*D_NET *16 0.000911701
*CONN
*P P[7] O
*I *222:X O *D sky130_fd_sc_hd__buf_2
*CAP
1 P[7] 0.00045585
2 *222:X 0.00045585
3 P[6] P[7] 0
*RES
1 *222:X P[7] 22.8536 
*END

*D_NET *19 0.0014199
*CONN
*I *180:A I *D sky130_fd_sc_hd__xnor2_1
*I *191:A1 I *D sky130_fd_sc_hd__o21bai_1
*I *176:Y O *D sky130_fd_sc_hd__nand2_1
*CAP
1 *180:A 0.00029046
2 *191:A1 2.23854e-05
3 *176:Y 0.000136092
4 *19:12 0.000448938
5 *180:A *179:B 7.03103e-05
6 *180:A *180:B 3.57366e-05
7 *180:A *33:6 0.000131439
8 *19:12 *33:6 0.00018372
9 *19:12 *54:19 0.000100823
*RES
1 *176:Y *19:12 21.4071 
2 *19:12 *191:A1 9.72857 
3 *19:12 *180:A 14.8179 
*END

*D_NET *20 0.00148044
*CONN
*I *179:A I *D sky130_fd_sc_hd__nor2_1
*I *191:A2 I *D sky130_fd_sc_hd__o21bai_1
*I *177:Y O *D sky130_fd_sc_hd__a21oi_1
*CAP
1 *179:A 0.000222858
2 *191:A2 0.00038821
3 *177:Y 0
4 *20:4 0.000611068
5 *179:A *58:23 4.0342e-06
6 *191:A2 *178:A 1.74352e-05
7 *191:A2 *178:B 5.52238e-05
8 *191:A2 *178:C 7.1964e-05
9 *191:A2 *21:12 8.31394e-05
10 *191:A2 *54:19 0
11 *191:A2 *58:23 2.65105e-05
*RES
1 *177:Y *20:4 9.3 
2 *20:4 *191:A2 25.6036 
3 *20:4 *179:A 21.9071 
*END

*D_NET *21 0.00104789
*CONN
*I *191:B1_N I *D sky130_fd_sc_hd__o21bai_1
*I *179:B I *D sky130_fd_sc_hd__nor2_1
*I *178:X O *D sky130_fd_sc_hd__and3_1
*CAP
1 *191:B1_N 0
2 *179:B 0.000234389
3 *178:X 9.79233e-05
4 *21:12 0.000332312
5 *179:B *180:B 0.000197945
6 *179:B *217:A 3.18676e-05
7 *180:A *179:B 7.03103e-05
8 *191:A2 *21:12 8.31394e-05
*RES
1 *178:X *21:12 19.8714 
2 *21:12 *179:B 14.8179 
3 *21:12 *191:B1_N 9.3 
*END

*D_NET *22 0.000493934
*CONN
*I *180:B I *D sky130_fd_sc_hd__xnor2_1
*I *179:Y O *D sky130_fd_sc_hd__nor2_1
*CAP
1 *180:B 0.000121409
2 *179:Y 0.000121409
3 *180:B *217:A 1.74352e-05
4 *179:B *180:B 0.000197945
5 *180:A *180:B 3.57366e-05
*RES
1 *179:Y *180:B 21.5107 
*END

*D_NET *23 0.000874191
*CONN
*I *186:A I *D sky130_fd_sc_hd__xnor2_1
*I *181:Y O *D sky130_fd_sc_hd__nand2_1
*CAP
1 *186:A 0.000244438
2 *181:Y 0.000244438
3 *186:A *184:A1 5.52302e-05
4 *186:A *184:B1 1.55885e-05
5 *186:A *185:B 6.30292e-05
6 *186:A *196:A3 4.46186e-06
7 *186:A *57:40 9.60875e-05
8 *186:A *57:55 2.2764e-05
9 *186:A *59:40 0.000128154
*RES
1 *181:Y *186:A 31.8321 
*END

*D_NET *24 0.000504307
*CONN
*I *203:A I *D sky130_fd_sc_hd__xnor2_1
*I *182:Y O *D sky130_fd_sc_hd__nand2_1
*CAP
1 *203:A 0.000140689
2 *182:Y 0.000140689
3 *203:A *202:A 8.00806e-05
4 *203:A *202:B 0
5 *203:A *202:C 0.00014285
6 *203:A *203:B 0
7 *203:A *41:10 0
*RES
1 *182:Y *203:A 30.6 
*END

*D_NET *25 0.00110413
*CONN
*I *185:A_N I *D sky130_fd_sc_hd__and2b_1
*I *196:B1 I *D sky130_fd_sc_hd__a31o_1
*I *183:X O *D sky130_fd_sc_hd__and4_1
*CAP
1 *185:A_N 0.000136422
2 *196:B1 0.000183419
3 *183:X 0
4 *25:6 0.000319841
5 *185:A_N *184:B1 5.80706e-06
6 *185:A_N *185:B 5.35777e-05
7 *185:A_N *55:8 9.90431e-05
8 *185:A_N *55:10 3.57844e-05
9 *185:A_N *55:36 1.17968e-05
10 *196:B1 *184:B1 3.92854e-05
11 *196:B1 *185:B 5.80706e-06
12 *196:B1 *196:A3 0.000112382
13 *196:B1 *53:34 0
14 *196:B1 *58:40 0.00010096
15 *196:B1 *59:38 0
*RES
1 *183:X *25:6 13.8 
2 *25:6 *196:B1 17.9071 
3 *25:6 *185:A_N 16.9071 
*END

*D_NET *26 0.00113328
*CONN
*I *185:B I *D sky130_fd_sc_hd__and2b_1
*I *196:A3 I *D sky130_fd_sc_hd__a31o_1
*I *184:X O *D sky130_fd_sc_hd__a22o_1
*CAP
1 *185:B 0.000131371
2 *196:A3 0.000212264
3 *184:X 0
4 *26:6 0.000343635
5 *185:B *186:B 5.52302e-05
6 *185:B *55:36 0
7 *185:B *59:40 2.00751e-05
8 *196:A3 *181:A 9.22103e-06
9 *196:A3 *196:A2 2.89114e-05
10 *196:A3 *58:40 2.44318e-05
11 *196:A3 *59:38 3.56594e-05
12 *196:A3 *59:40 1.18358e-05
13 *196:A3 *59:68 2.13884e-05
14 *185:A_N *185:B 5.35777e-05
15 *186:A *185:B 6.30292e-05
16 *186:A *196:A3 4.46186e-06
17 *196:B1 *185:B 5.80706e-06
18 *196:B1 *196:A3 0.000112382
*RES
1 *184:X *26:6 13.8 
2 *26:6 *196:A3 18.5679 
3 *26:6 *185:B 16.9964 
*END

*D_NET *27 0.000157223
*CONN
*I *186:B I *D sky130_fd_sc_hd__xnor2_1
*I *185:X O *D sky130_fd_sc_hd__and2b_1
*CAP
1 *186:B 5.09965e-05
2 *185:X 5.09965e-05
3 *185:B *186:B 5.52302e-05
*RES
1 *185:X *186:B 19.5464 
*END

*D_NET *28 0.0022235
*CONN
*I *201:A1 I *D sky130_fd_sc_hd__a221o_1
*I *193:B1 I *D sky130_fd_sc_hd__o21ai_1
*I *194:A I *D sky130_fd_sc_hd__or3_1
*I *186:Y O *D sky130_fd_sc_hd__xnor2_1
*CAP
1 *201:A1 0
2 *193:B1 9.36814e-05
3 *194:A 5.47059e-05
4 *186:Y 0.000361564
5 *28:21 0.00027479
6 *28:6 0.000597378
7 *193:B1 *193:A2 0.000113073
8 *193:B1 *199:B 5.33005e-05
9 *193:B1 *201:A2 8.83171e-05
10 *193:B1 *201:B1 2.89016e-05
11 *193:B1 *201:B2 2.99356e-05
12 *193:B1 *201:C1 4.27935e-05
13 *194:A *30:20 4.9071e-05
14 *194:A *37:14 2.17647e-05
15 *28:6 *194:C 0.00012306
16 *28:6 *37:14 0.000192055
17 *28:21 *201:A2 9.91086e-05
18 *28:21 *39:10 0
*RES
1 *186:Y *28:6 16.4071 
2 *28:6 *194:A 10.5679 
3 *28:6 *28:21 11.25 
4 *28:21 *193:B1 12.3179 
5 *28:21 *201:A1 9.3 
*END

*D_NET *29 0.003189
*CONN
*I *197:A I *D sky130_fd_sc_hd__nor2_1
*I *201:B2 I *D sky130_fd_sc_hd__a221o_1
*I *198:A I *D sky130_fd_sc_hd__and2_1
*I *188:B I *D sky130_fd_sc_hd__and2_1
*I *189:B I *D sky130_fd_sc_hd__nand2_1
*I *187:X O *D sky130_fd_sc_hd__and2_1
*CAP
1 *197:A 0.000112429
2 *201:B2 0.000256419
3 *198:A 2.12098e-05
4 *188:B 0
5 *189:B 3.47624e-05
6 *187:X 0.000130004
7 *29:37 0.000483656
8 *29:26 0.000233388
9 *29:17 0.000177897
10 *29:6 0.000245293
11 *197:A *197:B 0
12 *197:A *199:A 9.90431e-05
13 *197:A *200:A 0.000115474
14 *198:A *195:B 1.21258e-05
15 *198:A *30:20 1.24368e-05
16 *198:A *59:12 5.33005e-05
17 *201:B2 *199:B 1.98839e-05
18 *201:B2 *201:B1 0
19 *201:B2 *201:C1 2.89114e-05
20 *201:B2 *35:8 0.000184745
21 *29:6 *59:25 0.000230482
22 *29:17 *188:A 7.58571e-05
23 *29:17 *44:21 4.1331e-06
24 *29:17 *57:40 0
25 *29:17 *59:12 0.000123912
26 *29:26 *30:10 0.000125724
27 *29:26 *57:40 0
28 *29:26 *59:12 2.49484e-05
29 *29:37 *193:A1 0.000164554
30 *29:37 *195:B 7.25296e-05
31 *29:37 *197:B 0
32 *29:37 *200:A 5.7616e-05
33 *29:37 *30:10 5.83304e-05
34 *193:B1 *201:B2 2.99356e-05
*RES
1 *187:X *29:6 12.3 
2 *29:6 *189:B 9.83571 
3 *29:6 *29:17 7.35714 
4 *29:17 *188:B 13.8 
5 *29:17 *29:26 2.25 
6 *29:26 *198:A 14.3357 
7 *29:26 *29:37 3.46429 
8 *29:37 *201:B2 17.6616 
9 *29:37 *197:A 16.3893 
*END

*D_NET *30 0.00229988
*CONN
*I *193:A1 I *D sky130_fd_sc_hd__o21ai_1
*I *194:B I *D sky130_fd_sc_hd__or3_1
*I *201:A2 I *D sky130_fd_sc_hd__a221o_1
*I *188:X O *D sky130_fd_sc_hd__and2_1
*CAP
1 *193:A1 7.05523e-05
2 *194:B 0
3 *201:A2 0.000114855
4 *188:X 0.000131491
5 *30:20 0.000275294
6 *30:10 0.000362483
7 *193:A1 *197:B 6.17227e-05
8 *201:A2 *193:A2 9.66232e-05
9 *201:A2 *201:B1 8.51564e-05
10 *201:A2 *39:10 0
11 *30:10 *197:B 1.88048e-05
12 *30:10 *57:40 5.52238e-05
13 *30:10 *59:12 0.000101545
14 *30:20 *195:B 0.000146533
15 *30:20 *197:B 5.52238e-05
16 *30:20 *37:14 0.000106948
17 *30:20 *59:12 1.98839e-05
18 *193:B1 *201:A2 8.83171e-05
19 *194:A *30:20 4.9071e-05
20 *198:A *30:20 1.24368e-05
21 *28:21 *201:A2 9.91086e-05
22 *29:26 *30:10 0.000125724
23 *29:37 *193:A1 0.000164554
24 *29:37 *30:10 5.83304e-05
*RES
1 *188:X *30:10 16.5857 
2 *30:10 *30:20 9.19643 
3 *30:20 *201:A2 21.4652 
4 *30:20 *194:B 9.3 
5 *30:10 *193:A1 16.05 
*END

*D_NET *31 0.00146208
*CONN
*I *192:A I *D sky130_fd_sc_hd__and3_1
*I *204:A1 I *D sky130_fd_sc_hd__a21oi_1
*I *189:Y O *D sky130_fd_sc_hd__nand2_1
*CAP
1 *192:A 0.000130826
2 *204:A1 0.000138869
3 *189:Y 0.000117743
4 *31:12 0.000387439
5 *192:A *190:A1 3.30352e-05
6 *192:A *190:A2 0.000144773
7 *204:A1 *190:B1 3.34295e-05
8 *204:A1 *192:C 0
9 *204:A1 *204:A2 0
10 *204:A1 *45:20 0.00022117
11 *204:A1 *57:12 0
12 *31:12 *174:B 9.90367e-05
13 *31:12 *190:A1 1.21258e-05
14 *31:12 *190:B1 0
15 *31:12 *44:6 5.52302e-05
16 *31:12 *44:21 7.83659e-05
17 *31:12 *57:12 1.00375e-05
*RES
1 *189:Y *31:12 20.9964 
2 *31:12 *204:A1 21.4607 
3 *31:12 *192:A 11.8893 
*END

*D_NET *32 0.000853962
*CONN
*I *192:B I *D sky130_fd_sc_hd__and3_1
*I *204:A2 I *D sky130_fd_sc_hd__a21oi_1
*I *190:X O *D sky130_fd_sc_hd__a22o_1
*CAP
1 *192:B 0.000106229
2 *204:A2 0.000124305
3 *190:X 0
4 *32:4 0.000230534
5 *192:B *190:A2 5.06983e-05
6 *204:A2 *192:C 5.03694e-05
7 *204:A2 *204:B1 0.000105163
8 *204:A2 *205:A 0.000186662
9 *204:A1 *204:A2 0
*RES
1 *190:X *32:4 9.3 
2 *32:4 *204:A2 22.0143 
3 *32:4 *192:B 10.6571 
*END

*D_NET *33 0.0032924
*CONN
*I *192:C I *D sky130_fd_sc_hd__and3_1
*I *204:B1 I *D sky130_fd_sc_hd__a21oi_1
*I *191:Y O *D sky130_fd_sc_hd__o21bai_1
*CAP
1 *192:C 0.000186508
2 *204:B1 0.000325124
3 *191:Y 0.000764337
4 *33:6 0.00127597
5 *192:C *190:A2 1.95435e-05
6 *192:C *190:B1 0
7 *192:C *205:A 0.000126439
8 *192:C *34:29 0
9 *192:C *45:20 0
10 *204:B1 *205:A 0.000105473
11 *33:6 *205:A 1.83136e-05
12 *180:A *33:6 0.000131439
13 *204:A1 *192:C 0
14 *204:A2 *192:C 5.03694e-05
15 *204:A2 *204:B1 0.000105163
16 *19:12 *33:6 0.00018372
*RES
1 *191:Y *33:6 18.8714 
2 *33:6 *204:B1 13.9607 
3 *33:6 *192:C 22.2643 
*END

*D_NET *34 0.00488003
*CONN
*I *201:B1 I *D sky130_fd_sc_hd__a221o_1
*I *193:A2 I *D sky130_fd_sc_hd__o21ai_1
*I *194:C I *D sky130_fd_sc_hd__or3_1
*I *205:A I *D sky130_fd_sc_hd__nor2_1
*I *192:X O *D sky130_fd_sc_hd__and3_1
*CAP
1 *201:B1 0.000128787
2 *193:A2 0.000320747
3 *194:C 4.2414e-05
4 *205:A 0.000371401
5 *192:X 0
6 *34:44 0.000725247
7 *34:29 0.000957516
8 *34:4 0.00101079
9 *193:A2 *199:B 3.51531e-05
10 *194:C *37:14 0.000228508
11 *205:A *190:A2 1.83169e-05
12 *205:A *205:B 6.75704e-05
13 *34:29 *181:A 0
14 *34:29 *181:B 0
15 *34:29 *190:A2 7.76022e-05
16 *34:29 *54:19 0
17 *34:29 *54:30 0
18 *34:44 *41:10 1.22718e-05
19 *192:C *205:A 0.000126439
20 *192:C *34:29 0
21 *193:B1 *193:A2 0.000113073
22 *193:B1 *201:B1 2.89016e-05
23 *201:A2 *193:A2 9.66232e-05
24 *201:A2 *201:B1 8.51564e-05
25 *201:B2 *201:B1 0
26 *204:A2 *205:A 0.000186662
27 *204:B1 *205:A 0.000105473
28 *28:6 *194:C 0.00012306
29 *33:6 *205:A 1.83136e-05
*RES
1 *192:X *34:4 9.3 
2 *34:4 *205:A 26.0857 
3 *34:4 *34:29 14.6964 
4 *34:29 *194:C 15.9786 
5 *34:29 *34:44 8.21429 
6 *34:44 *193:A2 13.5321 
7 *34:44 *201:B1 11.9964 
*END

*D_NET *35 0.00109456
*CONN
*I *195:A I *D sky130_fd_sc_hd__and2_1
*I *200:A I *D sky130_fd_sc_hd__xnor2_1
*I *193:Y O *D sky130_fd_sc_hd__o21ai_1
*CAP
1 *195:A 0
2 *200:A 0.000143792
3 *193:Y 8.34211e-05
4 *35:8 0.000227213
5 *200:A *195:B 1.02504e-05
6 *200:A *199:A 9.90367e-05
7 *200:A *200:B 0
8 *35:8 *199:B 0.000173008
9 *197:A *200:A 0.000115474
10 *201:B2 *35:8 0.000184745
11 *29:37 *200:A 5.7616e-05
*RES
1 *193:Y *35:8 11.9071 
2 *35:8 *200:A 21.4964 
3 *35:8 *195:A 9.3 
*END

*D_NET *36 0.0010426
*CONN
*I *195:B I *D sky130_fd_sc_hd__and2_1
*I *194:X O *D sky130_fd_sc_hd__or3_1
*CAP
1 *195:B 0.000388196
2 *194:X 0.000388196
3 *195:B *199:A 0
4 *195:B *59:12 2.47724e-05
5 *198:A *195:B 1.21258e-05
6 *200:A *195:B 1.02504e-05
7 *29:37 *195:B 7.25296e-05
8 *30:20 *195:B 0.000146533
*RES
1 *194:X *195:B 33.3679 
*END

*D_NET *37 0.0031344
*CONN
*I *197:B I *D sky130_fd_sc_hd__nor2_1
*I *198:B I *D sky130_fd_sc_hd__and2_1
*I *196:X O *D sky130_fd_sc_hd__a31o_1
*CAP
1 *197:B 0.000257194
2 *198:B 0
3 *196:X 0.000725077
4 *37:14 0.000982271
5 *197:B *39:10 0.000170654
6 *37:14 *181:A 0.00016428
7 *37:14 *59:38 5.94788e-05
8 *37:14 *59:40 9.04169e-05
9 *193:A1 *197:B 6.17227e-05
10 *194:A *37:14 2.17647e-05
11 *194:C *37:14 0.000228508
12 *197:A *197:B 0
13 *28:6 *37:14 0.000192055
14 *29:37 *197:B 0
15 *30:10 *197:B 1.88048e-05
16 *30:20 *197:B 5.52238e-05
17 *30:20 *37:14 0.000106948
*RES
1 *196:X *37:14 32.8893 
2 *37:14 *198:B 9.3 
3 *37:14 *197:B 23.8179 
*END

*D_NET *38 0.00106526
*CONN
*I *199:A I *D sky130_fd_sc_hd__nor2_1
*I *197:Y O *D sky130_fd_sc_hd__nor2_1
*CAP
1 *199:A 0.000373236
2 *197:Y 0.000373236
3 *199:A *200:B 0.000120712
4 *195:B *199:A 0
5 *197:A *199:A 9.90431e-05
6 *200:A *199:A 9.90367e-05
*RES
1 *197:Y *199:A 34.0286 
*END

*D_NET *39 0.0012815
*CONN
*I *201:C1 I *D sky130_fd_sc_hd__a221o_1
*I *199:B I *D sky130_fd_sc_hd__nor2_1
*I *198:X O *D sky130_fd_sc_hd__and2_1
*CAP
1 *201:C1 1.20577e-05
2 *199:B 0.000233875
3 *198:X 0.000104393
4 *39:10 0.000350327
5 *199:B *219:A 5.71472e-05
6 *193:A2 *199:B 3.51531e-05
7 *193:B1 *199:B 5.33005e-05
8 *193:B1 *201:C1 4.27935e-05
9 *197:B *39:10 0.000170654
10 *201:A2 *39:10 0
11 *201:B2 *199:B 1.98839e-05
12 *201:B2 *201:C1 2.89114e-05
13 *28:21 *39:10 0
14 *35:8 *199:B 0.000173008
*RES
1 *198:X *39:10 20.55 
2 *39:10 *199:B 14.6393 
3 *39:10 *201:C1 9.83571 
*END

*D_NET *40 0.000411248
*CONN
*I *200:B I *D sky130_fd_sc_hd__xnor2_1
*I *199:Y O *D sky130_fd_sc_hd__nor2_1
*CAP
1 *200:B 0.000145268
2 *199:Y 0.000145268
3 *199:A *200:B 0.000120712
4 *200:A *200:B 0
*RES
1 *199:Y *200:B 30.4929 
*END

*D_NET *41 0.00174898
*CONN
*I *203:B I *D sky130_fd_sc_hd__xnor2_1
*I *202:C I *D sky130_fd_sc_hd__and3_1
*I *201:X O *D sky130_fd_sc_hd__a221o_1
*CAP
1 *203:B 4.03528e-05
2 *202:C 0.000144689
3 *201:X 0.000523563
4 *41:10 0.000708605
5 *202:C *202:A 0.000126719
6 *202:C *221:A 4.99317e-05
7 *203:B *202:B 0
8 *203:A *202:C 0.00014285
9 *203:A *203:B 0
10 *203:A *41:10 0
11 *34:44 *41:10 1.22718e-05
*RES
1 *201:X *41:10 20.1929 
2 *41:10 *202:C 17.0679 
3 *41:10 *203:B 14.5321 
*END

*D_NET *42 0.000290988
*CONN
*I *205:B I *D sky130_fd_sc_hd__nor2_1
*I *204:Y O *D sky130_fd_sc_hd__a21oi_1
*CAP
1 *205:B 9.57749e-05
2 *204:Y 9.57749e-05
3 *205:B *218:A 3.18676e-05
4 *205:A *205:B 6.75704e-05
*RES
1 *204:Y *205:B 20.8143 
*END

*D_NET *43 0.000246964
*CONN
*I *206:A I *D sky130_fd_sc_hd__clkbuf_1
*I *175:X O *D sky130_fd_sc_hd__and2_1
*CAP
1 *206:A 5.13708e-05
2 *175:X 5.13708e-05
3 *206:A *175:B 0.000144222
*RES
1 *175:X *206:A 19.9571 
*END

*D_NET *44 0.00121796
*CONN
*I *188:A I *D sky130_fd_sc_hd__and2_1
*I *189:A I *D sky130_fd_sc_hd__nand2_1
*I *207:A I *D sky130_fd_sc_hd__clkbuf_1
*I *174:X O *D sky130_fd_sc_hd__and2_1
*CAP
1 *188:A 9.98664e-05
2 *189:A 0
3 *207:A 0.000159178
4 *174:X 6.85644e-05
5 *44:21 0.000149007
6 *44:6 0.000276883
7 *188:A *57:12 7.57773e-05
8 *188:A *57:40 6.06278e-05
9 *207:A *174:B 7.43578e-06
10 *207:A *190:A1 2.02395e-05
11 *44:6 *174:B 1.69961e-05
12 *44:21 *190:B1 0
13 *44:21 *57:12 6.97972e-05
14 *44:21 *59:12 0
15 *29:17 *188:A 7.58571e-05
16 *29:17 *44:21 4.1331e-06
17 *31:12 *44:6 5.52302e-05
18 *31:12 *44:21 7.83659e-05
*RES
1 *174:X *44:6 10.2464 
2 *44:6 *207:A 11.925 
3 *44:6 *44:21 6.14286 
4 *44:21 *189:A 13.8 
5 *44:21 *188:A 16.8893 
*END

*D_NET *45 0.00197257
*CONN
*I *175:A I *D sky130_fd_sc_hd__and2_1
*I *190:B2 I *D sky130_fd_sc_hd__a22o_1
*I *174:B I *D sky130_fd_sc_hd__and2_1
*I *208:X O *D sky130_fd_sc_hd__clkbuf_1
*CAP
1 *175:A 3.46943e-05
2 *190:B2 0
3 *174:B 2.76335e-05
4 *208:X 0.00014992
5 *45:20 0.000593968
6 *45:12 0.000750949
7 *174:B *190:A1 7.07686e-05
8 *45:20 *57:12 0
9 *192:C *45:20 0
10 *204:A1 *45:20 0.00022117
11 *207:A *174:B 7.43578e-06
12 *31:12 *174:B 9.90367e-05
13 *44:6 *174:B 1.69961e-05
*RES
1 *208:X *45:12 20.4786 
2 *45:12 *45:20 18.5179 
3 *45:20 *174:B 10.6571 
4 *45:20 *190:B2 9.3 
5 *45:12 *175:A 9.83571 
*END

*D_NET *46 0.00070622
*CONN
*I *216:A I *D sky130_fd_sc_hd__buf_2
*I *207:X O *D sky130_fd_sc_hd__clkbuf_1
*CAP
1 *216:A 0.00035311
2 *207:X 0.00035311
3 P[1] *216:A 0
*RES
1 *207:X *216:A 32.2429 
*END

*D_NET *47 0.000754647
*CONN
*I *217:A I *D sky130_fd_sc_hd__buf_2
*I *180:Y O *D sky130_fd_sc_hd__xnor2_1
*CAP
1 *217:A 0.000352672
2 *180:Y 0.000352672
3 *179:B *217:A 3.18676e-05
4 *180:B *217:A 1.74352e-05
*RES
1 *180:Y *217:A 24.3857 
*END

*D_NET *48 0.000765273
*CONN
*I *218:A I *D sky130_fd_sc_hd__buf_2
*I *205:Y O *D sky130_fd_sc_hd__nor2_1
*CAP
1 *218:A 0.000366703
2 *205:Y 0.000366703
3 *205:B *218:A 3.18676e-05
*RES
1 *205:Y *218:A 24.4929 
*END

*D_NET *49 0.000679665
*CONN
*I *219:A I *D sky130_fd_sc_hd__buf_2
*I *195:X O *D sky130_fd_sc_hd__and2_1
*CAP
1 *219:A 0.000311259
2 *195:X 0.000311259
3 *199:B *219:A 5.71472e-05
*RES
1 *195:X *219:A 24.0821 
*END

*D_NET *50 0.000671719
*CONN
*I *220:A I *D sky130_fd_sc_hd__buf_2
*I *200:Y O *D sky130_fd_sc_hd__xnor2_1
*CAP
1 *220:A 0.000335859
2 *200:Y 0.000335859
*RES
1 *200:Y *220:A 33.2607 
*END

*D_NET *51 0.000682697
*CONN
*I *221:A I *D sky130_fd_sc_hd__buf_2
*I *203:Y O *D sky130_fd_sc_hd__xnor2_1
*CAP
1 *221:A 0.000302555
2 *203:Y 0.000302555
3 *221:A *202:A 2.76558e-05
4 *221:A *202:B 0
5 *221:A *222:A 0
6 *202:C *221:A 4.99317e-05
*RES
1 *203:Y *221:A 32.85 
*END

*D_NET *52 0.000350481
*CONN
*I *222:A I *D sky130_fd_sc_hd__buf_2
*I *202:X O *D sky130_fd_sc_hd__and3_1
*CAP
1 *222:A 0.000172337
2 *202:X 0.000172337
3 *222:A *202:B 5.80706e-06
4 *221:A *222:A 0
*RES
1 *202:X *222:A 30.4929 
*END

*D_NET *53 0.0032262
*CONN
*I *184:A1 I *D sky130_fd_sc_hd__a22o_1
*I *183:B I *D sky130_fd_sc_hd__and4_1
*I *177:A2 I *D sky130_fd_sc_hd__a21oi_1
*I *178:C I *D sky130_fd_sc_hd__and3_1
*I *209:X O *D sky130_fd_sc_hd__buf_1
*CAP
1 *184:A1 0.000209006
2 *183:B 0
3 *177:A2 0
4 *178:C 7.5077e-05
5 *209:X 0.000591229
6 *53:34 0.000377486
7 *53:12 0.000142534
8 *53:8 0.000827167
9 *178:C *178:A 5.52238e-05
10 *178:C *58:23 2.78608e-05
11 *184:A1 *183:C 0.000309279
12 *184:A1 *184:B1 1.98839e-05
13 *184:A1 *57:55 9.22103e-06
14 *53:12 *178:B 2.61337e-05
15 *53:12 *57:61 9.91086e-05
16 *53:12 *58:40 3.92854e-05
17 *53:34 *184:B1 9.69119e-06
18 *53:34 *57:55 2.89016e-05
19 *53:34 *57:61 0.000226021
20 *53:34 *58:40 2.58997e-05
21 *53:34 *59:38 0
22 *186:A *184:A1 5.52302e-05
23 *191:A2 *178:C 7.1964e-05
24 *196:B1 *53:34 0
*RES
1 *209:X *53:8 20.4964 
2 *53:8 *53:12 6.14286 
3 *53:12 *178:C 11.2821 
4 *53:12 *177:A2 9.3 
5 *53:8 *53:34 8.5 
6 *53:34 *183:B 9.3 
7 *53:34 *184:A1 13.55 
*END

*D_NET *54 0.00506734
*CONN
*I *181:B I *D sky130_fd_sc_hd__nand2_1
*I *196:A2 I *D sky130_fd_sc_hd__a31o_1
*I *187:A I *D sky130_fd_sc_hd__and2_1
*I *190:A2 I *D sky130_fd_sc_hd__a22o_1
*I *176:B I *D sky130_fd_sc_hd__nand2_1
*I *210:X O *D sky130_fd_sc_hd__buf_1
*CAP
1 *181:B 0.00015997
2 *196:A2 8.43299e-05
3 *187:A 0.000231582
4 *190:A2 0.00048025
5 *176:B 0
6 *210:X 0.000301998
7 *54:32 0.000315912
8 *54:30 0.000280279
9 *54:19 0.000870048
10 *54:10 0.000571486
11 *181:B *181:A 0.000176234
12 *181:B *57:40 7.68859e-05
13 *181:B *57:55 1.94098e-05
14 *187:A *59:38 0.000661157
15 *196:A2 *181:A 2.44318e-05
16 *196:A2 *59:38 0.000169359
17 *54:10 *56:12 0.000128154
18 *54:30 *181:A 5.58941e-05
19 *191:A2 *54:19 0
20 *192:A *190:A2 0.000144773
21 *192:B *190:A2 5.06983e-05
22 *192:C *190:A2 1.95435e-05
23 *196:A3 *196:A2 2.89114e-05
24 *205:A *190:A2 1.83169e-05
25 *210:A *54:10 1.92905e-05
26 *19:12 *54:19 0.000100823
27 *34:29 *181:B 0
28 *34:29 *190:A2 7.76022e-05
29 *34:29 *54:19 0
30 *34:29 *54:30 0
*RES
1 *210:X *54:10 18.3357 
2 *54:10 *176:B 13.8 
3 *54:10 *54:19 4.98214 
4 *54:19 *190:A2 22.9607 
5 *54:19 *54:30 2.25 
6 *54:30 *54:32 4.5 
7 *54:32 *187:A 15.5857 
8 *54:32 *196:A2 11.4786 
9 *54:30 *181:B 17.8536 
*END

*D_NET *55 0.00358519
*CONN
*I *202:B I *D sky130_fd_sc_hd__and3_1
*I *182:B I *D sky130_fd_sc_hd__nand2_1
*I *183:D I *D sky130_fd_sc_hd__and4_1
*I *184:B1 I *D sky130_fd_sc_hd__a22o_1
*I *211:X O *D sky130_fd_sc_hd__buf_1
*CAP
1 *202:B 0.000171955
2 *182:B 5.88446e-05
3 *183:D 0
4 *184:B1 0.000159951
5 *211:X 0.000661733
6 *55:36 0.000531012
7 *55:10 0.00020959
8 *55:8 0.00101158
9 *184:B1 *183:C 0.000266486
10 *184:B1 *57:55 0.000225013
11 *202:B *202:A 4.35048e-05
12 *202:B *59:40 2.8266e-06
13 *55:36 *59:40 0
14 *184:A1 *184:B1 1.98839e-05
15 *185:A_N *184:B1 5.80706e-06
16 *185:A_N *55:8 9.90431e-05
17 *185:A_N *55:10 3.57844e-05
18 *185:A_N *55:36 1.17968e-05
19 *185:B *55:36 0
20 *186:A *184:B1 1.55885e-05
21 *196:B1 *184:B1 3.92854e-05
22 *203:A *202:B 0
23 *203:B *202:B 0
24 *221:A *202:B 0
25 *222:A *202:B 5.80706e-06
26 *53:34 *184:B1 9.69119e-06
*RES
1 *211:X *55:8 21.7286 
2 *55:8 *55:10 1.03571 
3 *55:10 *184:B1 18.675 
4 *55:10 *183:D 13.8 
5 *55:8 *55:36 9.73214 
6 *55:36 *182:B 10.2464 
7 *55:36 *202:B 21.4607 
*END

*D_NET *56 0.00109404
*CONN
*I *176:A I *D sky130_fd_sc_hd__nand2_1
*I *175:B I *D sky130_fd_sc_hd__and2_1
*I *212:X O *D sky130_fd_sc_hd__clkbuf_1
*CAP
1 *176:A 2.23854e-05
2 *175:B 0.000283639
3 *212:X 0.000104806
4 *56:12 0.000410831
5 *56:12 *223:A 0
6 *206:A *175:B 0.000144222
7 *54:10 *56:12 0.000128154
*RES
1 *212:X *56:12 20.4786 
2 *56:12 *175:B 14.3714 
3 *56:12 *176:A 9.72857 
*END

*D_NET *57 0.00661461
*CONN
*I *183:A I *D sky130_fd_sc_hd__and4_1
*I *177:A1 I *D sky130_fd_sc_hd__a21oi_1
*I *178:A I *D sky130_fd_sc_hd__and3_1
*I *184:B2 I *D sky130_fd_sc_hd__a22o_1
*I *174:A I *D sky130_fd_sc_hd__and2_1
*I *190:A1 I *D sky130_fd_sc_hd__a22o_1
*I *213:X O *D sky130_fd_sc_hd__buf_1
*CAP
1 *183:A 0
2 *177:A1 0
3 *178:A 2.23501e-05
4 *184:B2 0
5 *174:A 0
6 *190:A1 0.000295464
7 *213:X 0.000433145
8 *57:61 0.000139336
9 *57:55 0.000610463
10 *57:40 0.00143472
11 *57:12 0.000524921
12 *57:8 0.00160384
13 *178:A *58:23 9.60875e-05
14 *57:55 *183:C 1.74352e-05
15 *57:61 *58:12 0.000153153
16 *174:B *190:A1 7.07686e-05
17 *178:C *178:A 5.52238e-05
18 *181:B *57:40 7.68859e-05
19 *181:B *57:55 1.94098e-05
20 *184:A1 *57:55 9.22103e-06
21 *184:B1 *57:55 0.000225013
22 *186:A *57:40 9.60875e-05
23 *186:A *57:55 2.2764e-05
24 *188:A *57:12 7.57773e-05
25 *188:A *57:40 6.06278e-05
26 *191:A2 *178:A 1.74352e-05
27 *192:A *190:A1 3.30352e-05
28 *204:A1 *57:12 0
29 *207:A *190:A1 2.02395e-05
30 *29:17 *57:40 0
31 *29:26 *57:40 0
32 *30:10 *57:40 5.52238e-05
33 *31:12 *190:A1 1.21258e-05
34 *31:12 *57:12 1.00375e-05
35 *44:21 *57:12 6.97972e-05
36 *45:20 *57:12 0
37 *53:12 *57:61 9.91086e-05
38 *53:34 *57:55 2.89016e-05
39 *53:34 *57:61 0.000226021
*RES
1 *213:X *57:8 18.8536 
2 *57:8 *57:12 8.875 
3 *57:12 *190:A1 14.7286 
4 *57:12 *174:A 9.3 
5 *57:8 *57:40 19.5357 
6 *57:40 *184:B2 9.3 
7 *57:40 *57:55 7.58929 
8 *57:55 *57:61 13.0714 
9 *57:61 *178:A 10.2464 
10 *57:61 *177:A1 9.3 
11 *57:55 *183:A 9.3 
*END

*D_NET *58 0.0043124
*CONN
*I *196:A1 I *D sky130_fd_sc_hd__a31o_1
*I *181:A I *D sky130_fd_sc_hd__nand2_1
*I *178:B I *D sky130_fd_sc_hd__and3_1
*I *177:B1 I *D sky130_fd_sc_hd__a21oi_1
*I *214:X O *D sky130_fd_sc_hd__buf_1
*CAP
1 *196:A1 0
2 *181:A 0.000352271
3 *178:B 0.000154098
4 *177:B1 0
5 *214:X 0.000658948
6 *58:40 0.00055964
7 *58:23 0.000551357
8 *58:12 0.000848839
9 *181:A *59:38 0.000177603
10 *178:A *58:23 9.60875e-05
11 *178:C *58:23 2.78608e-05
12 *179:A *58:23 4.0342e-06
13 *181:B *181:A 0.000176234
14 *191:A2 *178:B 5.52238e-05
15 *191:A2 *58:23 2.65105e-05
16 *196:A2 *181:A 2.44318e-05
17 *196:A3 *181:A 9.22103e-06
18 *196:A3 *58:40 2.44318e-05
19 *196:B1 *58:40 0.00010096
20 *34:29 *181:A 0
21 *37:14 *181:A 0.00016428
22 *53:12 *178:B 2.61337e-05
23 *53:12 *58:40 3.92854e-05
24 *53:34 *58:40 2.58997e-05
25 *54:30 *181:A 5.58941e-05
26 *57:61 *58:12 0.000153153
*RES
1 *214:X *58:12 27.5321 
2 *58:12 *177:B1 9.3 
3 *58:12 *58:23 7.10714 
4 *58:23 *178:B 15.9786 
5 *58:23 *58:40 8.73214 
6 *58:40 *181:A 25.6393 
7 *58:40 *196:A1 9.3 
*END

*D_NET *59 0.00715183
*CONN
*I *183:C I *D sky130_fd_sc_hd__and4_1
*I *184:A2 I *D sky130_fd_sc_hd__a22o_1
*I *202:A I *D sky130_fd_sc_hd__and3_1
*I *182:A I *D sky130_fd_sc_hd__nand2_1
*I *187:B I *D sky130_fd_sc_hd__and2_1
*I *190:B1 I *D sky130_fd_sc_hd__a22o_1
*I *215:X O *D sky130_fd_sc_hd__dlymetal6s2s_1
*CAP
1 *183:C 6.54254e-05
2 *184:A2 0
3 *202:A 0.000243966
4 *182:A 3.72884e-05
5 *187:B 2.23854e-05