*SPEF "ieee 1481-1999"
*DESIGN "mult8_2bits_1op_e17341"
*DATE "19:19:41 Tuesday September 16, 2025"
*VENDOR "The OpenROAD Project"
*PROGRAM "OpenROAD"
*VERSION "edf00dff99f6c40d67a30c0e22a8191c5d2ed9d6"
*DESIGN_FLOW "NAME_SCOPE LOCAL" "PIN_CAP NONE"
*DIVIDER /
*DELIMITER :
*BUS_DELIMITER []
*T_UNIT 1 NS
*C_UNIT 1 PF
*R_UNIT 1 OHM
*L_UNIT 1 HENRY

*NAME_MAP
*1 A[0]
*2 A[1]
*3 A[2]
*4 A[3]
*5 A[4]
*6 A[5]
*7 A[6]
*8 A[7]
*9 B[0]
*10 B[1]
*11 B[2]
*12 B[3]
*13 B[4]
*14 B[5]
*15 B[6]
*16 B[7]
*17 P[0]
*18 P[10]
*19 P[11]
*20 P[12]
*21 P[13]
*22 P[14]
*23 P[15]
*24 P[1]
*25 P[2]
*26 P[3]
*27 P[4]
*28 P[5]
*29 P[6]
*30 P[7]
*31 P[8]
*32 P[9]
*35 _000_
*36 _001_
*37 _002_
*38 _003_
*39 _004_
*40 _005_
*41 _006_
*42 _007_
*43 _008_
*44 _009_
*45 _010_
*46 _011_
*47 _012_
*48 _013_
*49 _014_
*50 _015_
*51 _016_
*52 _017_
*53 _018_
*54 _019_
*55 _020_
*56 _021_
*57 _022_
*58 _023_
*59 _024_
*60 _025_
*61 _026_
*62 _027_
*63 _028_
*64 _029_
*65 _030_
*66 _031_
*67 _032_
*68 _033_
*69 _034_
*70 _035_
*71 _036_
*72 _037_
*73 _038_
*74 _039_
*75 _040_
*76 _041_
*77 _042_
*78 _043_
*79 _044_
*80 _045_
*81 _046_
*82 _047_
*83 _048_
*84 _049_
*85 _050_
*86 _051_
*87 _052_
*88 _053_
*89 _054_
*90 _055_
*91 _056_
*92 _057_
*93 _058_
*94 _059_
*95 _060_
*96 _061_
*97 _062_
*98 _063_
*99 _064_
*100 _065_
*101 _066_
*102 _067_
*103 _068_
*104 _069_
*105 _070_
*106 _071_
*107 _072_
*108 _073_
*109 _074_
*110 _075_
*111 _076_
*112 _077_
*113 _078_
*114 _079_
*115 _080_
*116 _081_
*117 _082_
*118 _083_
*119 _084_
*120 _085_
*121 _086_
*122 _087_
*123 _088_
*124 _089_
*125 _090_
*126 _091_
*127 _092_
*128 _093_
*129 _094_
*130 _095_
*131 _096_
*132 _097_
*133 _098_
*134 _099_
*135 _100_
*136 _101_
*137 _102_
*138 _103_
*139 _104_
*140 _105_
*141 _106_
*142 _107_
*143 _108_
*144 _109_
*145 _110_
*146 _111_
*147 _112_
*148 _113_
*149 _114_
*150 _115_
*151 _116_
*152 _117_
*153 _118_
*154 _119_
*155 _120_
*156 _121_
*157 _122_
*158 _123_
*159 _124_
*160 _125_
*161 _126_
*162 _127_
*163 _128_
*164 _129_
*165 _130_
*166 _131_
*167 _132_
*168 _133_
*169 _134_
*170 _135_
*171 _136_
*172 _137_
*173 _138_
*174 _139_
*175 _140_
*176 _141_
*177 _142_
*178 _143_
*179 _144_
*180 _145_
*181 _146_
*182 _147_
*183 _148_
*184 _149_
*185 _150_
*186 _151_
*187 _152_
*188 _153_
*189 _154_
*190 _155_
*191 _156_
*192 _157_
*193 _158_
*194 _159_
*195 _160_
*196 _161_
*197 _162_
*198 _163_
*199 _164_
*200 _165_
*201 _166_
*202 _167_
*203 _168_
*204 _169_
*205 _170_
*206 _171_
*207 _172_
*208 _173_
*209 _174_
*210 _175_
*211 _176_
*212 _177_
*213 _178_
*214 _179_
*215 _180_
*216 _181_
*217 _182_
*218 _183_
*219 _184_
*220 _185_
*221 _186_
*222 _187_
*223 _188_
*224 _189_
*225 _190_
*226 _191_
*227 _192_
*228 _193_
*229 _194_
*230 _195_
*231 _196_
*232 _197_
*233 _198_
*234 _199_
*235 _200_
*236 _201_
*237 _202_
*238 _203_
*239 _204_
*240 _205_
*241 _206_
*242 _207_
*243 _208_
*244 _209_
*245 _210_
*246 _211_
*247 _212_
*248 _213_
*249 _214_
*250 _215_
*251 _216_
*252 _217_
*253 _218_
*254 _219_
*255 _220_
*256 _221_
*257 _222_
*258 _223_
*259 _224_
*260 _225_
*261 _226_
*262 _227_
*263 _228_
*264 _229_
*265 _230_
*266 _231_
*267 _232_
*268 _233_
*269 _234_
*270 _235_
*271 _236_
*272 _237_
*273 _238_
*274 _239_
*275 _240_
*276 _241_
*277 _242_
*278 _243_
*279 _244_
*280 _245_
*281 _246_
*282 _247_
*283 _248_
*284 _249_
*285 _250_
*286 _251_
*287 _252_
*288 _253_
*289 _254_
*290 _255_
*291 _256_
*292 _257_
*293 _258_
*294 _259_
*295 _260_
*296 _261_
*297 _262_
*298 _263_
*299 _264_
*300 _265_
*301 _266_
*302 _267_
*303 _268_
*304 _269_
*305 _270_
*306 _271_
*307 _272_
*308 _273_
*309 net1
*310 net10
*311 net11
*312 net12
*313 net13
*314 net14
*315 net15
*316 net16
*317 net17
*318 net18
*319 net19
*320 net2
*321 net20
*322 net21
*323 net22
*324 net23
*325 net24
*326 net25
*327 net26
*328 net27
*329 net28
*330 net29
*331 net3
*332 net30
*333 net31
*334 net32
*335 net33
*336 net34
*337 net35
*338 net36
*339 net37
*340 net38
*341 net39
*342 net4
*343 net40
*344 net41
*345 net42
*346 net43
*347 net44
*348 net45
*349 net46
*350 net47
*351 net48
*352 net49
*353 net5
*354 net50
*355 net51
*356 net52
*357 net53
*358 net54
*359 net55
*360 net56
*361 net57
*362 net58
*363 net59
*364 net6
*365 net60
*366 net61
*367 net62
*368 net63
*369 net64
*370 net65
*371 net66
*372 net67
*373 net68
*374 net69
*375 net7
*376 net70
*377 net8
*378 net9
*379 ANTENNA_1
*380 FILLER_0_109
*381 FILLER_0_113
*382 FILLER_0_125
*383 FILLER_0_137
*384 FILLER_0_141
*385 FILLER_0_15
*386 FILLER_0_153
*387 FILLER_0_161
*388 FILLER_0_169
*389 FILLER_0_175
*390 FILLER_0_182
*391 FILLER_0_194
*392 FILLER_0_197
*393 FILLER_0_209
*394 FILLER_0_221
*395 FILLER_0_225
*396 FILLER_0_237
*397 FILLER_0_245
*398 FILLER_0_251
*399 FILLER_0_253
*400 FILLER_0_265
*401 FILLER_0_27
*402 FILLER_0_277
*403 FILLER_0_281
*404 FILLER_0_29
*405 FILLER_0_293
*406 FILLER_0_3
*407 FILLER_0_305
*408 FILLER_0_309
*409 FILLER_0_321
*410 FILLER_0_333
*411 FILLER_0_337
*412 FILLER_0_349
*413 FILLER_0_361
*414 FILLER_0_365
*415 FILLER_0_377
*416 FILLER_0_389
*417 FILLER_0_393
*418 FILLER_0_405
*419 FILLER_0_41
*420 FILLER_0_53
*421 FILLER_0_57
*422 FILLER_0_69
*423 FILLER_0_81
*424 FILLER_0_85
*425 FILLER_0_97
*426 FILLER_10_109
*427 FILLER_10_121
*428 FILLER_10_133
*429 FILLER_10_139
*430 FILLER_10_141
*431 FILLER_10_15
*432 FILLER_10_153
*433 FILLER_10_165
*434 FILLER_10_177
*435 FILLER_10_189
*436 FILLER_10_195
*437 FILLER_10_197
*438 FILLER_10_209
*439 FILLER_10_221
*440 FILLER_10_233
*441 FILLER_10_245
*442 FILLER_10_251
*443 FILLER_10_253
*444 FILLER_10_265
*445 FILLER_10_27
*446 FILLER_10_277
*447 FILLER_10_289
*448 FILLER_10_29
*449 FILLER_10_3
*450 FILLER_10_301
*451 FILLER_10_307
*452 FILLER_10_309
*453 FILLER_10_321
*454 FILLER_10_333
*455 FILLER_10_345
*456 FILLER_10_357
*457 FILLER_10_363
*458 FILLER_10_365
*459 FILLER_10_377
*460 FILLER_10_389
*461 FILLER_10_401
*462 FILLER_10_41
*463 FILLER_10_53
*464 FILLER_10_65
*465 FILLER_10_77
*466 FILLER_10_83
*467 FILLER_10_85
*468 FILLER_10_97
*469 FILLER_11_105
*470 FILLER_11_111
*471 FILLER_11_113
*472 FILLER_11_125
*473 FILLER_11_137
*474 FILLER_11_149
*475 FILLER_11_15
*476 FILLER_11_161
*477 FILLER_11_167
*478 FILLER_11_169
*479 FILLER_11_181
*480 FILLER_11_193
*481 FILLER_11_205
*482 FILLER_11_217
*483 FILLER_11_223
*484 FILLER_11_225
*485 FILLER_11_237
*486 FILLER_11_249
*487 FILLER_11_261
*488 FILLER_11_27
*489 FILLER_11_273
*490 FILLER_11_279
*491 FILLER_11_281
*492 FILLER_11_293
*493 FILLER_11_3
*494 FILLER_11_305
*495 FILLER_11_317
*496 FILLER_11_329
*497 FILLER_11_335
*498 FILLER_11_337
*499 FILLER_11_349
*500 FILLER_11_361
*501 FILLER_11_373
*502 FILLER_11_385
*503 FILLER_11_39
*504 FILLER_11_391
*505 FILLER_11_393
*506 FILLER_11_405
*507 FILLER_11_51
*508 FILLER_11_55
*509 FILLER_11_57
*510 FILLER_11_69
*511 FILLER_11_81
*512 FILLER_11_93
*513 FILLER_12_109
*514 FILLER_12_121
*515 FILLER_12_133
*516 FILLER_12_139
*517 FILLER_12_141
*518 FILLER_12_15
*519 FILLER_12_153
*520 FILLER_12_165
*521 FILLER_12_177
*522 FILLER_12_189
*523 FILLER_12_195
*524 FILLER_12_197
*525 FILLER_12_209
*526 FILLER_12_221
*527 FILLER_12_233
*528 FILLER_12_245
*529 FILLER_12_251
*530 FILLER_12_253
*531 FILLER_12_265
*532 FILLER_12_27
*533 FILLER_12_277
*534 FILLER_12_289
*535 FILLER_12_29
*536 FILLER_12_3
*537 FILLER_12_301
*538 FILLER_12_307
*539 FILLER_12_309
*540 FILLER_12_321
*541 FILLER_12_333
*542 FILLER_12_345
*543 FILLER_12_357
*544 FILLER_12_363
*545 FILLER_12_365
*546 FILLER_12_377
*547 FILLER_12_389
*548 FILLER_12_401
*549 FILLER_12_41
*550 FILLER_12_53
*551 FILLER_12_65
*552 FILLER_12_77
*553 FILLER_12_83
*554 FILLER_12_85
*555 FILLER_12_97
*556 FILLER_13_105
*557 FILLER_13_111
*558 FILLER_13_113
*559 FILLER_13_125
*560 FILLER_13_137
*561 FILLER_13_141
*562 FILLER_13_149
*563 FILLER_13_15
*564 FILLER_13_161
*565 FILLER_13_167
*566 FILLER_13_169
*567 FILLER_13_181
*568 FILLER_13_193
*569 FILLER_13_205
*570 FILLER_13_217
*571 FILLER_13_223
*572 FILLER_13_225
*573 FILLER_13_237
*574 FILLER_13_249
*575 FILLER_13_261
*576 FILLER_13_27
*577 FILLER_13_273
*578 FILLER_13_279
*579 FILLER_13_281
*580 FILLER_13_293
*581 FILLER_13_3
*582 FILLER_13_305
*583 FILLER_13_317
*584 FILLER_13_329
*585 FILLER_13_335
*586 FILLER_13_337
*587 FILLER_13_349
*588 FILLER_13_361
*589 FILLER_13_373
*590 FILLER_13_385
*591 FILLER_13_39
*592 FILLER_13_391
*593 FILLER_13_393
*594 FILLER_13_405
*595 FILLER_13_51
*596 FILLER_13_55
*597 FILLER_13_57
*598 FILLER_13_69
*599 FILLER_13_81
*600 FILLER_13_93
*601 FILLER_14_109
*602 FILLER_14_121
*603 FILLER_14_133
*604 FILLER_14_139
*605 FILLER_14_141
*606 FILLER_14_15
*607 FILLER_14_160
*608 FILLER_14_172
*609 FILLER_14_180
*610 FILLER_14_184
*611 FILLER_14_197
*612 FILLER_14_209
*613 FILLER_14_221
*614 FILLER_14_233
*615 FILLER_14_245
*616 FILLER_14_251
*617 FILLER_14_253
*618 FILLER_14_265
*619 FILLER_14_27
*620 FILLER_14_277
*621 FILLER_14_289
*622 FILLER_14_29
*623 FILLER_14_3
*624 FILLER_14_301
*625 FILLER_14_307
*626 FILLER_14_309
*627 FILLER_14_321
*628 FILLER_14_333
*629 FILLER_14_345
*630 FILLER_14_357
*631 FILLER_14_363
*632 FILLER_14_365
*633 FILLER_14_377
*634 FILLER_14_389
*635 FILLER_14_401
*636 FILLER_14_41
*637 FILLER_14_53
*638 FILLER_14_65
*639 FILLER_14_77
*640 FILLER_14_83
*641 FILLER_14_85
*642 FILLER_14_97
*643 FILLER_15_105
*644 FILLER_15_111
*645 FILLER_15_113
*646 FILLER_15_125
*647 FILLER_15_137
*648 FILLER_15_149
*649 FILLER_15_15
*650 FILLER_15_161
*651 FILLER_15_167
*652 FILLER_15_169
*653 FILLER_15_173
*654 FILLER_15_181
*655 FILLER_15_193
*656 FILLER_15_205
*657 FILLER_15_217
*658 FILLER_15_223
*659 FILLER_15_225
*660 FILLER_15_237
*661 FILLER_15_249
*662 FILLER_15_261
*663 FILLER_15_27
*664 FILLER_15_273
*665 FILLER_15_279
*666 FILLER_15_281
*667 FILLER_15_293
*668 FILLER_15_3
*669 FILLER_15_305
*670 FILLER_15_317
*671 FILLER_15_329
*672 FILLER_15_335
*673 FILLER_15_337
*674 FILLER_15_349
*675 FILLER_15_361
*676 FILLER_15_373
*677 FILLER_15_385
*678 FILLER_15_39
*679 FILLER_15_391
*680 FILLER_15_393
*681 FILLER_15_405
*682 FILLER_15_51
*683 FILLER_15_55
*684 FILLER_15_57
*685 FILLER_15_69
*686 FILLER_15_81
*687 FILLER_15_93
*688 FILLER_16_109
*689 FILLER_16_121
*690 FILLER_16_133
*691 FILLER_16_139
*692 FILLER_16_148
*693 FILLER_16_15
*694 FILLER_16_160
*695 FILLER_16_172
*696 FILLER_16_183
*697 FILLER_16_195
*698 FILLER_16_197
*699 FILLER_16_209
*700 FILLER_16_221
*701 FILLER_16_233
*702 FILLER_16_245
*703 FILLER_16_251
*704 FILLER_16_253
*705 FILLER_16_265
*706 FILLER_16_27
*707 FILLER_16_277
*708 FILLER_16_289
*709 FILLER_16_29
*710 FILLER_16_3
*711 FILLER_16_301
*712 FILLER_16_307
*713 FILLER_16_309
*714 FILLER_16_321
*715 FILLER_16_333
*716 FILLER_16_345
*717 FILLER_16_357
*718 FILLER_16_363
*719 FILLER_16_365
*720 FILLER_16_377
*721 FILLER_16_389
*722 FILLER_16_401
*723 FILLER_16_41
*724 FILLER_16_53
*725 FILLER_16_65
*726 FILLER_16_77
*727 FILLER_16_83
*728 FILLER_16_85
*729 FILLER_16_97
*730 FILLER_17_105
*731 FILLER_17_111
*732 FILLER_17_113
*733 FILLER_17_125
*734 FILLER_17_137
*735 FILLER_17_149
*736 FILLER_17_15
*737 FILLER_17_161
*738 FILLER_17_167
*739 FILLER_17_169
*740 FILLER_17_173
*741 FILLER_17_187
*742 FILLER_17_199
*743 FILLER_17_211
*744 FILLER_17_223
*745 FILLER_17_225
*746 FILLER_17_235
*747 FILLER_17_247
*748 FILLER_17_259
*749 FILLER_17_27
*750 FILLER_17_271
*751 FILLER_17_279
*752 FILLER_17_281
*753 FILLER_17_293
*754 FILLER_17_3
*755 FILLER_17_305
*756 FILLER_17_317
*757 FILLER_17_329
*758 FILLER_17_335
*759 FILLER_17_337
*760 FILLER_17_349
*761 FILLER_17_361
*762 FILLER_17_373
*763 FILLER_17_385
*764 FILLER_17_39
*765 FILLER_17_391
*766 FILLER_17_393
*767 FILLER_17_405
*768 FILLER_17_51
*769 FILLER_17_55
*770 FILLER_17_57
*771 FILLER_17_69
*772 FILLER_17_81
*773 FILLER_17_93
*774 FILLER_18_105
*775 FILLER_18_126
*776 FILLER_18_134
*777 FILLER_18_15
*778 FILLER_18_151
*779 FILLER_18_163
*780 FILLER_18_175
*781 FILLER_18_197
*782 FILLER_18_209
*783 FILLER_18_221
*784 FILLER_18_233
*785 FILLER_18_245
*786 FILLER_18_251
*787 FILLER_18_253
*788 FILLER_18_265
*789 FILLER_18_27
*790 FILLER_18_277
*791 FILLER_18_289
*792 FILLER_18_29
*793 FILLER_18_3
*794 FILLER_18_301
*795 FILLER_18_307
*796 FILLER_18_309
*797 FILLER_18_321
*798 FILLER_18_333
*799 FILLER_18_345
*800 FILLER_18_357
*801 FILLER_18_363
*802 FILLER_18_365
*803 FILLER_18_377
*804 FILLER_18_389
*805 FILLER_18_401
*806 FILLER_18_41
*807 FILLER_18_53
*808 FILLER_18_65
*809 FILLER_18_77
*810 FILLER_18_83
*811 FILLER_18_85
*812 FILLER_18_97
*813 FILLER_19_109
*814 FILLER_19_113
*815 FILLER_19_125
*816 FILLER_19_137
*817 FILLER_19_149
*818 FILLER_19_15
*819 FILLER_19_157
*820 FILLER_19_166
*821 FILLER_19_182
*822 FILLER_19_194
*823 FILLER_19_206
*824 FILLER_19_218
*825 FILLER_19_225
*826 FILLER_19_253
*827 FILLER_19_265
*828 FILLER_19_27
*829 FILLER_19_277
*830 FILLER_19_281
*831 FILLER_19_293
*832 FILLER_19_3
*833 FILLER_19_305
*834 FILLER_19_317
*835 FILLER_19_329
*836 FILLER_19_335
*837 FILLER_19_337
*838 FILLER_19_349
*839 FILLER_19_361
*840 FILLER_19_373
*841 FILLER_19_385
*842 FILLER_19_39
*843 FILLER_19_391
*844 FILLER_19_393
*845 FILLER_19_405
*846 FILLER_19_51
*847 FILLER_19_55
*848 FILLER_19_57
*849 FILLER_19_69
*850 FILLER_19_81
*851 FILLER_19_89
*852 FILLER_19_97
*853 FILLER_1_105
*854 FILLER_1_111
*855 FILLER_1_113
*856 FILLER_1_125
*857 FILLER_1_137
*858 FILLER_1_149
*859 FILLER_1_15
*860 FILLER_1_161
*861 FILLER_1_167
*862 FILLER_1_169
*863 FILLER_1_181
*864 FILLER_1_193
*865 FILLER_1_205
*866 FILLER_1_217
*867 FILLER_1_223
*868 FILLER_1_225
*869 FILLER_1_237
*870 FILLER_1_249
*871 FILLER_1_261
*872 FILLER_1_27
*873 FILLER_1_273
*874 FILLER_1_279
*875 FILLER_1_281
*876 FILLER_1_293
*877 FILLER_1_3
*878 FILLER_1_305
*879 FILLER_1_317
*880 FILLER_1_329
*881 FILLER_1_335
*882 FILLER_1_337
*883 FILLER_1_349
*884 FILLER_1_361
*885 FILLER_1_373
*886 FILLER_1_385
*887 FILLER_1_39
*888 FILLER_1_391
*889 FILLER_1_393
*890 FILLER_1_405
*891 FILLER_1_51
*892 FILLER_1_55
*893 FILLER_1_57
*894 FILLER_1_69
*895 FILLER_1_81
*896 FILLER_1_93
*897 FILLER_20_112
*898 FILLER_20_124
*899 FILLER_20_136
*900 FILLER_20_141
*901 FILLER_20_15
*902 FILLER_20_158
*903 FILLER_20_170
*904 FILLER_20_182
*905 FILLER_20_194
*906 FILLER_20_197
*907 FILLER_20_209
*908 FILLER_20_221
*909 FILLER_20_229
*910 FILLER_20_238
*911 FILLER_20_250
*912 FILLER_20_253
*913 FILLER_20_265
*914 FILLER_20_27
*915 FILLER_20_277
*916 FILLER_20_289
*917 FILLER_20_29
*918 FILLER_20_3
*919 FILLER_20_301
*920 FILLER_20_307
*921 FILLER_20_309
*922 FILLER_20_321
*923 FILLER_20_333
*924 FILLER_20_345
*925 FILLER_20_357
*926 FILLER_20_363
*927 FILLER_20_365
*928 FILLER_20_377
*929 FILLER_20_389
*930 FILLER_20_401
*931 FILLER_20_41
*932 FILLER_20_53
*933 FILLER_20_65
*934 FILLER_20_77
*935 FILLER_20_83
*936 FILLER_20_85
*937 FILLER_21_111
*938 FILLER_21_113
*939 FILLER_21_129
*940 FILLER_21_137
*941 FILLER_21_15
*942 FILLER_21_153
*943 FILLER_21_165
*944 FILLER_21_169
*945 FILLER_21_181
*946 FILLER_21_189
*947 FILLER_21_195
*948 FILLER_21_207
*949 FILLER_21_219
*950 FILLER_21_223
*951 FILLER_21_225
*952 FILLER_21_237
*953 FILLER_21_249
*954 FILLER_21_261
*955 FILLER_21_27
*956 FILLER_21_273
*957 FILLER_21_279
*958 FILLER_21_281
*959 FILLER_21_293
*960 FILLER_21_3
*961 FILLER_21_305
*962 FILLER_21_317
*963 FILLER_21_329
*964 FILLER_21_335
*965 FILLER_21_337
*966 FILLER_21_349
*967 FILLER_21_361
*968 FILLER_21_373
*969 FILLER_21_385
*970 FILLER_21_39
*971 FILLER_21_391
*972 FILLER_21_393
*973 FILLER_21_405
*974 FILLER_21_51
*975 FILLER_21_55
*976 FILLER_21_70
*977 FILLER_21_99
*978 FILLER_22_109
*979 FILLER_22_121
*980 FILLER_22_133
*981 FILLER_22_139
*982 FILLER_22_141
*983 FILLER_22_15
*984 FILLER_22_153
*985 FILLER_22_165
*986 FILLER_22_177
*987 FILLER_22_189
*988 FILLER_22_195
*989 FILLER_22_205
*990 FILLER_22_217
*991 FILLER_22_223
*992 FILLER_22_237
*993 FILLER_22_249
*994 FILLER_22_253
*995 FILLER_22_265
*996 FILLER_22_27
*997 FILLER_22_277
*998 FILLER_22_289
*999 FILLER_22_29
*1000 FILLER_22_3
*1001 FILLER_22_301
*1002 FILLER_22_307
*1003 FILLER_22_309
*1004 FILLER_22_321
*1005 FILLER_22_333
*1006 FILLER_22_345
*1007 FILLER_22_35
*1008 FILLER_22_357
*1009 FILLER_22_363
*1010 FILLER_22_365
*1011 FILLER_22_377
*1012 FILLER_22_389
*1013 FILLER_22_401
*1014 FILLER_22_48
*1015 FILLER_22_71
*1016 FILLER_22_83
*1017 FILLER_22_85
*1018 FILLER_22_97
*1019 FILLER_23_110
*1020 FILLER_23_113
*1021 FILLER_23_117
*1022 FILLER_23_129
*1023 FILLER_23_141
*1024 FILLER_23_153
*1025 FILLER_23_165
*1026 FILLER_23_169
*1027 FILLER_23_184
*1028 FILLER_23_196
*1029 FILLER_23_20
*1030 FILLER_23_208
*1031 FILLER_23_220
*1032 FILLER_23_225
*1033 FILLER_23_233
*1034 FILLER_23_245
*1035 FILLER_23_257
*1036 FILLER_23_269
*1037 FILLER_23_277
*1038 FILLER_23_281
*1039 FILLER_23_293
*1040 FILLER_23_3
*1041 FILLER_23_305
*1042 FILLER_23_317
*1043 FILLER_23_32
*1044 FILLER_23_329
*1045 FILLER_23_335
*1046 FILLER_23_337
*1047 FILLER_23_349
*1048 FILLER_23_361
*1049 FILLER_23_373
*1050 FILLER_23_385
*1051 FILLER_23_391
*1052 FILLER_23_393
*1053 FILLER_23_405
*1054 FILLER_23_43
*1055 FILLER_23_51
*1056 FILLER_23_75
*1057 FILLER_23_86
*1058 FILLER_23_98
*1059 FILLER_24_106
*1060 FILLER_24_118
*1061 FILLER_24_12
*1062 FILLER_24_130
*1063 FILLER_24_138
*1064 FILLER_24_141
*1065 FILLER_24_153
*1066 FILLER_24_165
*1067 FILLER_24_171
*1068 FILLER_24_183
*1069 FILLER_24_195
*1070 FILLER_24_197
*1071 FILLER_24_209
*1072 FILLER_24_221
*1073 FILLER_24_233
*1074 FILLER_24_242
*1075 FILLER_24_250
*1076 FILLER_24_253
*1077 FILLER_24_265
*1078 FILLER_24_277
*1079 FILLER_24_289
*1080 FILLER_24_29
*1081 FILLER_24_301
*1082 FILLER_24_307
*1083 FILLER_24_309
*1084 FILLER_24_321
*1085 FILLER_24_333
*1086 FILLER_24_345
*1087 FILLER_24_357
*1088 FILLER_24_363
*1089 FILLER_24_365
*1090 FILLER_24_377
*1091 FILLER_24_389
*1092 FILLER_24_401
*1093 FILLER_24_41
*1094 FILLER_24_53
*1095 FILLER_24_78
*1096 FILLER_24_85
*1097 FILLER_24_97
*1098 FILLER_25_107
*1099 FILLER_25_111
*1100 FILLER_25_12
*1101 FILLER_25_121
*1102 FILLER_25_133
*1103 FILLER_25_145
*1104 FILLER_25_149
*1105 FILLER_25_155
*1106 FILLER_25_167
*1107 FILLER_25_169
*1108 FILLER_25_177
*1109 FILLER_25_186
*1110 FILLER_25_194
*1111 FILLER_25_209
*1112 FILLER_25_22
*1113 FILLER_25_221
*1114 FILLER_25_232
*1115 FILLER_25_244
*1116 FILLER_25_256
*1117 FILLER_25_268
*1118 FILLER_25_281
*1119 FILLER_25_293
*1120 FILLER_25_305
*1121 FILLER_25_317
*1122 FILLER_25_329
*1123 FILLER_25_335
*1124 FILLER_25_337
*1125 FILLER_25_34
*1126 FILLER_25_349
*1127 FILLER_25_361
*1128 FILLER_25_373
*1129 FILLER_25_385
*1130 FILLER_25_391
*1131 FILLER_25_393
*1132 FILLER_25_405
*1133 FILLER_25_46
*1134 FILLER_25_54
*1135 FILLER_25_57
*1136 FILLER_25_63
*1137 FILLER_25_71
*1138 FILLER_25_83
*1139 FILLER_25_95
*1140 FILLER_26_100
*1141 FILLER_26_112
*1142 FILLER_26_129
*1143 FILLER_26_137
*1144 FILLER_26_141
*1145 FILLER_26_147
*1146 FILLER_26_161
*1147 FILLER_26_173
*1148 FILLER_26_189
*1149 FILLER_26_19
*1150 FILLER_26_195
*1151 FILLER_26_206
*1152 FILLER_26_218
*1153 FILLER_26_244
*1154 FILLER_26_253
*1155 FILLER_26_265
*1156 FILLER_26_27
*1157 FILLER_26_277
*1158 FILLER_26_289
*1159 FILLER_26_29
*1160 FILLER_26_301
*1161 FILLER_26_307
*1162 FILLER_26_309
*1163 FILLER_26_321
*1164 FILLER_26_327
*1165 FILLER_26_335
*1166 FILLER_26_347
*1167 FILLER_26_359
*1168 FILLER_26_363
*1169 FILLER_26_365
*1170 FILLER_26_377
*1171 FILLER_26_389
*1172 FILLER_26_41
*1173 FILLER_26_53
*1174 FILLER_26_65
*1175 FILLER_26_7
*1176 FILLER_26_77
*1177 FILLER_26_83
*1178 FILLER_26_95
*1179 FILLER_27_105
*1180 FILLER_27_11
*1181 FILLER_27_111
*1182 FILLER_27_116
*1183 FILLER_27_129
*1184 FILLER_27_141
*1185 FILLER_27_153
*1186 FILLER_27_165
*1187 FILLER_27_176
*1188 FILLER_27_187
*1189 FILLER_27_19
*1190 FILLER_27_197
*1191 FILLER_27_209
*1192 FILLER_27_221
*1193 FILLER_27_225
*1194 FILLER_27_237
*1195 FILLER_27_249
*1196 FILLER_27_261
*1197 FILLER_27_273
*1198 FILLER_27_279
*1199 FILLER_27_281
*1200 FILLER_27_293
*1201 FILLER_27_305
*1202 FILLER_27_31
*1203 FILLER_27_317
*1204 FILLER_27_329
*1205 FILLER_27_335
*1206 FILLER_27_337
*1207 FILLER_27_349
*1208 FILLER_27_361
*1209 FILLER_27_373
*1210 FILLER_27_385
*1211 FILLER_27_391
*1212 FILLER_27_393
*1213 FILLER_27_405
*1214 FILLER_27_41
*1215 FILLER_27_53
*1216 FILLER_27_57
*1217 FILLER_27_69
*1218 FILLER_27_7
*1219 FILLER_27_81
*1220 FILLER_27_93
*1221 FILLER_28_109
*1222 FILLER_28_138
*1223 FILLER_28_141
*1224 FILLER_28_15
*1225 FILLER_28_153
*1226 FILLER_28_165
*1227 FILLER_28_177
*1228 FILLER_28_189
*1229 FILLER_28_195
*1230 FILLER_28_207
*1231 FILLER_28_219
*1232 FILLER_28_231
*1233 FILLER_28_243
*1234 FILLER_28_251
*1235 FILLER_28_266
*1236 FILLER_28_27
*1237 FILLER_28_278
*1238 FILLER_28_290
*1239 FILLER_28_3
*1240 FILLER_28_302
*1241 FILLER_28_331
*1242 FILLER_28_343
*1243 FILLER_28_35
*1244 FILLER_28_355
*1245 FILLER_28_363
*1246 FILLER_28_365
*1247 FILLER_28_377
*1248 FILLER_28_389
*1249 FILLER_28_401
*1250 FILLER_28_51
*1251 FILLER_28_63
*1252 FILLER_28_75
*1253 FILLER_28_83
*1254 FILLER_28_85
*1255 FILLER_28_97
*1256 FILLER_29_104
*1257 FILLER_29_113
*1258 FILLER_29_125
*1259 FILLER_29_137
*1260 FILLER_29_149
*1261 FILLER_29_157
*1262 FILLER_29_165
*1263 FILLER_29_169
*1264 FILLER_29_181
*1265 FILLER_29_19
*1266 FILLER_29_193
*1267 FILLER_29_210
*1268 FILLER_29_222
*1269 FILLER_29_225
*1270 FILLER_29_231
*1271 FILLER_29_239
*1272 FILLER_29_251
*1273 FILLER_29_263
*1274 FILLER_29_272
*1275 FILLER_29_281
*1276 FILLER_29_293
*1277 FILLER_29_305
*1278 FILLER_29_31
*1279 FILLER_29_317
*1280 FILLER_29_331
*1281 FILLER_29_335
*1282 FILLER_29_337
*1283 FILLER_29_349
*1284 FILLER_29_361
*1285 FILLER_29_373
*1286 FILLER_29_38
*1287 FILLER_29_385
*1288 FILLER_29_391
*1289 FILLER_29_393
*1290 FILLER_29_397
*1291 FILLER_29_50
*1292 FILLER_29_57
*1293 FILLER_29_69
*1294 FILLER_29_7
*1295 FILLER_29_77
*1296 FILLER_29_83
*1297 FILLER_29_92
*1298 FILLER_2_109
*1299 FILLER_2_121
*1300 FILLER_2_133
*1301 FILLER_2_139
*1302 FILLER_2_141
*1303 FILLER_2_15
*1304 FILLER_2_153
*1305 FILLER_2_165
*1306 FILLER_2_177
*1307 FILLER_2_189
*1308 FILLER_2_195
*1309 FILLER_2_197
*1310 FILLER_2_209
*1311 FILLER_2_221
*1312 FILLER_2_233
*1313 FILLER_2_245
*1314 FILLER_2_251
*1315 FILLER_2_253
*1316 FILLER_2_265
*1317 FILLER_2_27
*1318 FILLER_2_277
*1319 FILLER_2_289
*1320 FILLER_2_29
*1321 FILLER_2_3
*1322 FILLER_2_301
*1323 FILLER_2_307
*1324 FILLER_2_309
*1325 FILLER_2_321
*1326 FILLER_2_333
*1327 FILLER_2_345
*1328 FILLER_2_357
*1329 FILLER_2_363
*1330 FILLER_2_365
*1331 FILLER_2_377
*1332 FILLER_2_389
*1333 FILLER_2_401
*1334 FILLER_2_41
*1335 FILLER_2_53
*1336 FILLER_2_65
*1337 FILLER_2_77
*1338 FILLER_2_83
*1339 FILLER_2_85
*1340 FILLER_2_97
*1341 FILLER_30_107
*1342 FILLER_30_119
*1343 FILLER_30_13
*1344 FILLER_30_131
*1345 FILLER_30_139
*1346 FILLER_30_141
*1347 FILLER_30_153
*1348 FILLER_30_165
*1349 FILLER_30_177
*1350 FILLER_30_189
*1351 FILLER_30_195
*1352 FILLER_30_197
*1353 FILLER_30_209
*1354 FILLER_30_221
*1355 FILLER_30_231
*1356 FILLER_30_243
*1357 FILLER_30_251
*1358 FILLER_30_253
*1359 FILLER_30_265
*1360 FILLER_30_277
*1361 FILLER_30_281
*1362 FILLER_30_285
*1363 FILLER_30_297
*1364 FILLER_30_305
*1365 FILLER_30_323
*1366 FILLER_30_352
*1367 FILLER_30_365
*1368 FILLER_30_377
*1369 FILLER_30_389
*1370 FILLER_30_401
*1371 FILLER_30_44
*1372 FILLER_30_56
*1373 FILLER_30_68
*1374 FILLER_30_80
*1375 FILLER_30_95
*1376 FILLER_31_105
*1377 FILLER_31_111
*1378 FILLER_31_113
*1379 FILLER_31_12
*1380 FILLER_31_125
*1381 FILLER_31_137
*1382 FILLER_31_149
*1383 FILLER_31_161
*1384 FILLER_31_167
*1385 FILLER_31_169
*1386 FILLER_31_181
*1387 FILLER_31_187
*1388 FILLER_31_195
*1389 FILLER_31_211
*1390 FILLER_31_223
*1391 FILLER_31_229
*1392 FILLER_31_241
*1393 FILLER_31_253
*1394 FILLER_31_261
*1395 FILLER_31_267
*1396 FILLER_31_279
*1397 FILLER_31_281
*1398 FILLER_31_289
*1399 FILLER_31_294
*1400 FILLER_31_300
*1401 FILLER_31_308
*1402 FILLER_31_320
*1403 FILLER_31_332
*1404 FILLER_31_337
*1405 FILLER_31_349
*1406 FILLER_31_361
*1407 FILLER_31_373
*1408 FILLER_31_385
*1409 FILLER_31_391
*1410 FILLER_31_393
*1411 FILLER_31_405
*1412 FILLER_31_47
*1413 FILLER_31_55
*1414 FILLER_31_57
*1415 FILLER_31_69
*1416 FILLER_31_73
*1417 FILLER_31_81
*1418 FILLER_31_93
*1419 FILLER_32_109
*1420 FILLER_32_121
*1421 FILLER_32_13
*1422 FILLER_32_133
*1423 FILLER_32_139
*1424 FILLER_32_146
*1425 FILLER_32_158
*1426 FILLER_32_170
*1427 FILLER_32_182
*1428 FILLER_32_189
*1429 FILLER_32_195
*1430 FILLER_32_197
*1431 FILLER_32_201
*1432 FILLER_32_207
*1433 FILLER_32_219
*1434 FILLER_32_231
*1435 FILLER_32_243
*1436 FILLER_32_251
*1437 FILLER_32_253
*1438 FILLER_32_265
*1439 FILLER_32_277
*1440 FILLER_32_283
*1441 FILLER_32_304
*1442 FILLER_32_317
*1443 FILLER_32_337
*1444 FILLER_32_349
*1445 FILLER_32_36
*1446 FILLER_32_361
*1447 FILLER_32_365
*1448 FILLER_32_377
*1449 FILLER_32_389
*1450 FILLER_32_401
*1451 FILLER_32_48
*1452 FILLER_32_60
*1453 FILLER_32_7
*1454 FILLER_32_75
*1455 FILLER_32_83
*1456 FILLER_32_85
*1457 FILLER_32_97
*1458 FILLER_33_105
*1459 FILLER_33_111
*1460 FILLER_33_113
*1461 FILLER_33_119
*1462 FILLER_33_123
*1463 FILLER_33_133
*1464 FILLER_33_145
*1465 FILLER_33_15
*1466 FILLER_33_151
*1467 FILLER_33_163
*1468 FILLER_33_167
*1469 FILLER_33_169
*1470 FILLER_33_181
*1471 FILLER_33_203
*1472 FILLER_33_215
*1473 FILLER_33_223
*1474 FILLER_33_225
*1475 FILLER_33_237
*1476 FILLER_33_249
*1477 FILLER_33_261
*1478 FILLER_33_27
*1479 FILLER_33_273
*1480 FILLER_33_279
*1481 FILLER_33_281
*1482 FILLER_33_293
*1483 FILLER_33_3
*1484 FILLER_33_305
*1485 FILLER_33_317
*1486 FILLER_33_329
*1487 FILLER_33_335
*1488 FILLER_33_337
*1489 FILLER_33_349
*1490 FILLER_33_361
*1491 FILLER_33_373
*1492 FILLER_33_385
*1493 FILLER_33_39
*1494 FILLER_33_391
*1495 FILLER_33_393
*1496 FILLER_33_405
*1497 FILLER_33_51
*1498 FILLER_33_55
*1499 FILLER_33_57
*1500 FILLER_33_69
*1501 FILLER_33_81
*1502 FILLER_33_93
*1503 FILLER_34_109
*1504 FILLER_34_121
*1505 FILLER_34_133
*1506 FILLER_34_139
*1507 FILLER_34_141
*1508 FILLER_34_146
*1509 FILLER_34_158
*1510 FILLER_34_170
*1511 FILLER_34_182
*1512 FILLER_34_19
*1513 FILLER_34_190
*1514 FILLER_34_197
*1515 FILLER_34_215
*1516 FILLER_34_227
*1517 FILLER_34_239
*1518 FILLER_34_250
*1519 FILLER_34_253
*1520 FILLER_34_257
*1521 FILLER_34_26
*1522 FILLER_34_263
*1523 FILLER_34_275
*1524 FILLER_34_287
*1525 FILLER_34_29
*1526 FILLER_34_299
*1527 FILLER_34_307
*1528 FILLER_34_309
*1529 FILLER_34_321
*1530 FILLER_34_333
*1531 FILLER_34_345
*1532 FILLER_34_357
*1533 FILLER_34_36
*1534 FILLER_34_363
*1535 FILLER_34_365
*1536 FILLER_34_377
*1537 FILLER_34_389
*1538 FILLER_34_401
*1539 FILLER_34_48
*1540 FILLER_34_60
*1541 FILLER_34_7
*1542 FILLER_34_77
*1543 FILLER_34_83
*1544 FILLER_34_85
*1545 FILLER_34_89
*1546 FILLER_34_97
*1547 FILLER_35_100
*1548 FILLER_35_113
*1549 FILLER_35_122
*1550 FILLER_35_134
*1551 FILLER_35_153
*1552 FILLER_35_165
*1553 FILLER_35_169
*1554 FILLER_35_181
*1555 FILLER_35_19
*1556 FILLER_35_193
*1557 FILLER_35_201
*1558 FILLER_35_209
*1559 FILLER_35_225
*1560 FILLER_35_237
*1561 FILLER_35_257
*1562 FILLER_35_265
*1563 FILLER_35_273
*1564 FILLER_35_279
*1565 FILLER_35_281
*1566 FILLER_35_293
*1567 FILLER_35_305
*1568 FILLER_35_317
*1569 FILLER_35_329
*1570 FILLER_35_335
*1571 FILLER_35_337
*1572 FILLER_35_349
*1573 FILLER_35_361
*1574 FILLER_35_373
*1575 FILLER_35_385
*1576 FILLER_35_391
*1577 FILLER_35_393
*1578 FILLER_35_405
*1579 FILLER_35_41
*1580 FILLER_35_53
*1581 FILLER_35_57
*1582 FILLER_35_69
*1583 FILLER_35_7
*1584 FILLER_35_88
*1585 FILLER_36_109
*1586 FILLER_36_121
*1587 FILLER_36_133
*1588 FILLER_36_139
*1589 FILLER_36_141
*1590 FILLER_36_147
*1591 FILLER_36_15
*1592 FILLER_36_159
*1593 FILLER_36_171
*1594 FILLER_36_183
*1595 FILLER_36_195
*1596 FILLER_36_197
*1597 FILLER_36_20
*1598 FILLER_36_213
*1599 FILLER_36_226
*1600 FILLER_36_237
*1601 FILLER_36_260
*1602 FILLER_36_272
*1603 FILLER_36_284
*1604 FILLER_36_29
*1605 FILLER_36_296
*1606 FILLER_36_309
*1607 FILLER_36_321
*1608 FILLER_36_325
*1609 FILLER_36_333
*1610 FILLER_36_345
*1611 FILLER_36_357
*1612 FILLER_36_363
*1613 FILLER_36_365
*1614 FILLER_36_377
*1615 FILLER_36_389
*1616 FILLER_36_397
*1617 FILLER_36_41
*1618 FILLER_36_53
*1619 FILLER_36_65
*1620 FILLER_36_7
*1621 FILLER_36_76
*1622 FILLER_36_85
*1623 FILLER_36_97
*1624 FILLER_37_108
*1625 FILLER_37_113
*1626 FILLER_37_125
*1627 FILLER_37_137
*1628 FILLER_37_15
*1629 FILLER_37_159
*1630 FILLER_37_167
*1631 FILLER_37_169
*1632 FILLER_37_181
*1633 FILLER_37_193
*1634 FILLER_37_205
*1635 FILLER_37_217
*1636 FILLER_37_223
*1637 FILLER_37_225
*1638 FILLER_37_237
*1639 FILLER_37_249
*1640 FILLER_37_261
*1641 FILLER_37_27
*1642 FILLER_37_273
*1643 FILLER_37_279
*1644 FILLER_37_281
*1645 FILLER_37_287
*1646 FILLER_37_295
*1647 FILLER_37_3
*1648 FILLER_37_307
*1649 FILLER_37_319
*1650 FILLER_37_344
*1651 FILLER_37_359
*1652 FILLER_37_371
*1653 FILLER_37_383
*1654 FILLER_37_39
*1655 FILLER_37_391
*1656 FILLER_37_393
*1657 FILLER_37_405
*1658 FILLER_37_51
*1659 FILLER_37_55
*1660 FILLER_37_57
*1661 FILLER_37_69
*1662 FILLER_37_75
*1663 FILLER_37_96
*1664 FILLER_38_108
*1665 FILLER_38_122
*1666 FILLER_38_134
*1667 FILLER_38_141
*1668 FILLER_38_146
*1669 FILLER_38_15
*1670 FILLER_38_158
*1671 FILLER_38_170
*1672 FILLER_38_182
*1673 FILLER_38_194
*1674 FILLER_38_197
*1675 FILLER_38_209
*1676 FILLER_38_221
*1677 FILLER_38_233
*1678 FILLER_38_245
*1679 FILLER_38_251
*1680 FILLER_38_260
*1681 FILLER_38_27
*1682 FILLER_38_287
*1683 FILLER_38_29
*1684 FILLER_38_299
*1685 FILLER_38_3
*1686 FILLER_38_307
*1687 FILLER_38_309
*1688 FILLER_38_321
*1689 FILLER_38_352
*1690 FILLER_38_365
*1691 FILLER_38_377
*1692 FILLER_38_389
*1693 FILLER_38_401
*1694 FILLER_38_41
*1695 FILLER_38_53
*1696 FILLER_38_61
*1697 FILLER_38_72
*1698 FILLER_38_76
*1699 FILLER_38_96
*1700 FILLER_39_101
*1701 FILLER_39_109
*1702 FILLER_39_131
*1703 FILLER_39_135
*1704 FILLER_39_139
*1705 FILLER_39_15
*1706 FILLER_39_151
*1707 FILLER_39_159
*1708 FILLER_39_163
*1709 FILLER_39_167
*1710 FILLER_39_169
*1711 FILLER_39_181
*1712 FILLER_39_193
*1713 FILLER_39_205
*1714 FILLER_39_213
*1715 FILLER_39_218