*SPEF "ieee 1481-1999"
*DESIGN "e7_SARSA_nSteps_INDEPENDIENTES"
*DATE "10:09:34 Friday September 12, 2025"
*VENDOR "The OpenROAD Project"
*PROGRAM "OpenROAD"
*VERSION "edf00dff99f6c40d67a30c0e22a8191c5d2ed9d6"
*DESIGN_FLOW "NAME_SCOPE LOCAL" "PIN_CAP NONE"
*DIVIDER /
*DELIMITER :
*BUS_DELIMITER []
*T_UNIT 1 NS
*C_UNIT 1 PF
*R_UNIT 1 OHM
*L_UNIT 1 HENRY

*NAME_MAP
*1 A[0]
*2 A[1]
*3 B[0]
*4 B[1]
*5 P[0]
*6 P[1]
*7 P[2]
*8 P[3]
*11 _0_
*12 _1_
*13 net1
*14 net2
*15 net3
*16 net4
*17 net5
*18 net6
*19 net7
*20 net8
*21 FILLER_0_109
*22 FILLER_0_113
*23 FILLER_0_125
*24 FILLER_0_137
*25 FILLER_0_141
*26 FILLER_0_15
*27 FILLER_0_153
*28 FILLER_0_165
*29 FILLER_0_169
*30 FILLER_0_181
*31 FILLER_0_193
*32 FILLER_0_197
*33 FILLER_0_209
*34 FILLER_0_221
*35 FILLER_0_225
*36 FILLER_0_237
*37 FILLER_0_249
*38 FILLER_0_253
*39 FILLER_0_265
*40 FILLER_0_27
*41 FILLER_0_277
*42 FILLER_0_281
*43 FILLER_0_29
*44 FILLER_0_293
*45 FILLER_0_3
*46 FILLER_0_305
*47 FILLER_0_309
*48 FILLER_0_321
*49 FILLER_0_333
*50 FILLER_0_337
*51 FILLER_0_349
*52 FILLER_0_361
*53 FILLER_0_365
*54 FILLER_0_377
*55 FILLER_0_389
*56 FILLER_0_393
*57 FILLER_0_405
*58 FILLER_0_41
*59 FILLER_0_53
*60 FILLER_0_57
*61 FILLER_0_69
*62 FILLER_0_81
*63 FILLER_0_85
*64 FILLER_0_97
*65 FILLER_10_109
*66 FILLER_10_121
*67 FILLER_10_133
*68 FILLER_10_139
*69 FILLER_10_141
*70 FILLER_10_15
*71 FILLER_10_153
*72 FILLER_10_165
*73 FILLER_10_177
*74 FILLER_10_189
*75 FILLER_10_195
*76 FILLER_10_197
*77 FILLER_10_209
*78 FILLER_10_221
*79 FILLER_10_233
*80 FILLER_10_245
*81 FILLER_10_251
*82 FILLER_10_253
*83 FILLER_10_265
*84 FILLER_10_27
*85 FILLER_10_277
*86 FILLER_10_289
*87 FILLER_10_29
*88 FILLER_10_3
*89 FILLER_10_301
*90 FILLER_10_307
*91 FILLER_10_309
*92 FILLER_10_321
*93 FILLER_10_333
*94 FILLER_10_345
*95 FILLER_10_357
*96 FILLER_10_363
*97 FILLER_10_365
*98 FILLER_10_377
*99 FILLER_10_389
*100 FILLER_10_401
*101 FILLER_10_41
*102 FILLER_10_53
*103 FILLER_10_65
*104 FILLER_10_77
*105 FILLER_10_83
*106 FILLER_10_85
*107 FILLER_10_97
*108 FILLER_11_105
*109 FILLER_11_111
*110 FILLER_11_113
*111 FILLER_11_125
*112 FILLER_11_137
*113 FILLER_11_149
*114 FILLER_11_15
*115 FILLER_11_161
*116 FILLER_11_167
*117 FILLER_11_169
*118 FILLER_11_181
*119 FILLER_11_193
*120 FILLER_11_205
*121 FILLER_11_217
*122 FILLER_11_223
*123 FILLER_11_225
*124 FILLER_11_237
*125 FILLER_11_249
*126 FILLER_11_261
*127 FILLER_11_27
*128 FILLER_11_273
*129 FILLER_11_279
*130 FILLER_11_281
*131 FILLER_11_293
*132 FILLER_11_3
*133 FILLER_11_305
*134 FILLER_11_317
*135 FILLER_11_329
*136 FILLER_11_335
*137 FILLER_11_337
*138 FILLER_11_349
*139 FILLER_11_361
*140 FILLER_11_373
*141 FILLER_11_385
*142 FILLER_11_39
*143 FILLER_11_391
*144 FILLER_11_393
*145 FILLER_11_405
*146 FILLER_11_51
*147 FILLER_11_55
*148 FILLER_11_57
*149 FILLER_11_69
*150 FILLER_11_81
*151 FILLER_11_93
*152 FILLER_12_109
*153 FILLER_12_121
*154 FILLER_12_133
*155 FILLER_12_139
*156 FILLER_12_141
*157 FILLER_12_15
*158 FILLER_12_153
*159 FILLER_12_165
*160 FILLER_12_177
*161 FILLER_12_189
*162 FILLER_12_195
*163 FILLER_12_197
*164 FILLER_12_209
*165 FILLER_12_221
*166 FILLER_12_233
*167 FILLER_12_245
*168 FILLER_12_251
*169 FILLER_12_253
*170 FILLER_12_265
*171 FILLER_12_27
*172 FILLER_12_277
*173 FILLER_12_289
*174 FILLER_12_29
*175 FILLER_12_3
*176 FILLER_12_301
*177 FILLER_12_307
*178 FILLER_12_309
*179 FILLER_12_321
*180 FILLER_12_333
*181 FILLER_12_345
*182 FILLER_12_357
*183 FILLER_12_363
*184 FILLER_12_365
*185 FILLER_12_377
*186 FILLER_12_389
*187 FILLER_12_401
*188 FILLER_12_41
*189 FILLER_12_53
*190 FILLER_12_65
*191 FILLER_12_77
*192 FILLER_12_83
*193 FILLER_12_85
*194 FILLER_12_97
*195 FILLER_13_105
*196 FILLER_13_111
*197 FILLER_13_113
*198 FILLER_13_125
*199 FILLER_13_137
*200 FILLER_13_149
*201 FILLER_13_15
*202 FILLER_13_161
*203 FILLER_13_167
*204 FILLER_13_169
*205 FILLER_13_181
*206 FILLER_13_193
*207 FILLER_13_205
*208 FILLER_13_217
*209 FILLER_13_223
*210 FILLER_13_225
*211 FILLER_13_237
*212 FILLER_13_249
*213 FILLER_13_261
*214 FILLER_13_27
*215 FILLER_13_273
*216 FILLER_13_279
*217 FILLER_13_281
*218 FILLER_13_293
*219 FILLER_13_3
*220 FILLER_13_305
*221 FILLER_13_317
*222 FILLER_13_329
*223 FILLER_13_335
*224 FILLER_13_337
*225 FILLER_13_349
*226 FILLER_13_361
*227 FILLER_13_373
*228 FILLER_13_385
*229 FILLER_13_39
*230 FILLER_13_391
*231 FILLER_13_393
*232 FILLER_13_405
*233 FILLER_13_51
*234 FILLER_13_55
*235 FILLER_13_57
*236 FILLER_13_69
*237 FILLER_13_81
*238 FILLER_13_93
*239 FILLER_14_109
*240 FILLER_14_121
*241 FILLER_14_133
*242 FILLER_14_139
*243 FILLER_14_141
*244 FILLER_14_15
*245 FILLER_14_153
*246 FILLER_14_165
*247 FILLER_14_177
*248 FILLER_14_189
*249 FILLER_14_195
*250 FILLER_14_197
*251 FILLER_14_209
*252 FILLER_14_221
*253 FILLER_14_233
*254 FILLER_14_245
*255 FILLER_14_251
*256 FILLER_14_253
*257 FILLER_14_265
*258 FILLER_14_27
*259 FILLER_14_277
*260 FILLER_14_289
*261 FILLER_14_29
*262 FILLER_14_3
*263 FILLER_14_301
*264 FILLER_14_307
*265 FILLER_14_309
*266 FILLER_14_321
*267 FILLER_14_333
*268 FILLER_14_345
*269 FILLER_14_357
*270 FILLER_14_363
*271 FILLER_14_365
*272 FILLER_14_377
*273 FILLER_14_389
*274 FILLER_14_401
*275 FILLER_14_41
*276 FILLER_14_53
*277 FILLER_14_65
*278 FILLER_14_77
*279 FILLER_14_83
*280 FILLER_14_85
*281 FILLER_14_97
*282 FILLER_15_105
*283 FILLER_15_111
*284 FILLER_15_113
*285 FILLER_15_125
*286 FILLER_15_137
*287 FILLER_15_149
*288 FILLER_15_15
*289 FILLER_15_161
*290 FILLER_15_167
*291 FILLER_15_169
*292 FILLER_15_181
*293 FILLER_15_193
*294 FILLER_15_205
*295 FILLER_15_217
*296 FILLER_15_223
*297 FILLER_15_225
*298 FILLER_15_237
*299 FILLER_15_249
*300 FILLER_15_261
*301 FILLER_15_27
*302 FILLER_15_273
*303 FILLER_15_279
*304 FILLER_15_281
*305 FILLER_15_293
*306 FILLER_15_3
*307 FILLER_15_305
*308 FILLER_15_317
*309 FILLER_15_329
*310 FILLER_15_335
*311 FILLER_15_337
*312 FILLER_15_349
*313 FILLER_15_361
*314 FILLER_15_373
*315 FILLER_15_385
*316 FILLER_15_39
*317 FILLER_15_391
*318 FILLER_15_393
*319 FILLER_15_405
*320 FILLER_15_51
*321 FILLER_15_55
*322 FILLER_15_57
*323 FILLER_15_69
*324 FILLER_15_81
*325 FILLER_15_93
*326 FILLER_16_109
*327 FILLER_16_121
*328 FILLER_16_133
*329 FILLER_16_139
*330 FILLER_16_141
*331 FILLER_16_15
*332 FILLER_16_153
*333 FILLER_16_165
*334 FILLER_16_177
*335 FILLER_16_189
*336 FILLER_16_195
*337 FILLER_16_197
*338 FILLER_16_209
*339 FILLER_16_221
*340 FILLER_16_233
*341 FILLER_16_245
*342 FILLER_16_251
*343 FILLER_16_253
*344 FILLER_16_265
*345 FILLER_16_27
*346 FILLER_16_277
*347 FILLER_16_289
*348 FILLER_16_29
*349 FILLER_16_3
*350 FILLER_16_301
*351 FILLER_16_307
*352 FILLER_16_309
*353 FILLER_16_321
*354 FILLER_16_333
*355 FILLER_16_345
*356 FILLER_16_357
*357 FILLER_16_363
*358 FILLER_16_365
*359 FILLER_16_377
*360 FILLER_16_389
*361 FILLER_16_401
*362 FILLER_16_41
*363 FILLER_16_53
*364 FILLER_16_65
*365 FILLER_16_77
*366 FILLER_16_83
*367 FILLER_16_85
*368 FILLER_16_97
*369 FILLER_17_105
*370 FILLER_17_111
*371 FILLER_17_113
*372 FILLER_17_125
*373 FILLER_17_137
*374 FILLER_17_149
*375 FILLER_17_15
*376 FILLER_17_161
*377 FILLER_17_167
*378 FILLER_17_169
*379 FILLER_17_181
*380 FILLER_17_193
*381 FILLER_17_205
*382 FILLER_17_217
*383 FILLER_17_223
*384 FILLER_17_225
*385 FILLER_17_237
*386 FILLER_17_249
*387 FILLER_17_261
*388 FILLER_17_27
*389 FILLER_17_273
*390 FILLER_17_279
*391 FILLER_17_281
*392 FILLER_17_293
*393 FILLER_17_3
*394 FILLER_17_305
*395 FILLER_17_317
*396 FILLER_17_329
*397 FILLER_17_335
*398 FILLER_17_337
*399 FILLER_17_349
*400 FILLER_17_361
*401 FILLER_17_373
*402 FILLER_17_385
*403 FILLER_17_39
*404 FILLER_17_391
*405 FILLER_17_393
*406 FILLER_17_405
*407 FILLER_17_51
*408 FILLER_17_55
*409 FILLER_17_57
*410 FILLER_17_69
*411 FILLER_17_81
*412 FILLER_17_93
*413 FILLER_18_109
*414 FILLER_18_121
*415 FILLER_18_133
*416 FILLER_18_139
*417 FILLER_18_141
*418 FILLER_18_15
*419 FILLER_18_153
*420 FILLER_18_165
*421 FILLER_18_177
*422 FILLER_18_189
*423 FILLER_18_195
*424 FILLER_18_197
*425 FILLER_18_209
*426 FILLER_18_221
*427 FILLER_18_233
*428 FILLER_18_245
*429 FILLER_18_251
*430 FILLER_18_253
*431 FILLER_18_265
*432 FILLER_18_27
*433 FILLER_18_277
*434 FILLER_18_289
*435 FILLER_18_29
*436 FILLER_18_3
*437 FILLER_18_301
*438 FILLER_18_307
*439 FILLER_18_309
*440 FILLER_18_321
*441 FILLER_18_333
*442 FILLER_18_345
*443 FILLER_18_357
*444 FILLER_18_363
*445 FILLER_18_365
*446 FILLER_18_377
*447 FILLER_18_389
*448 FILLER_18_401
*449 FILLER_18_41
*450 FILLER_18_53
*451 FILLER_18_65
*452 FILLER_18_77
*453 FILLER_18_83
*454 FILLER_18_85
*455 FILLER_18_97
*456 FILLER_19_105
*457 FILLER_19_111
*458 FILLER_19_113
*459 FILLER_19_125
*460 FILLER_19_137
*461 FILLER_19_149
*462 FILLER_19_15
*463 FILLER_19_161
*464 FILLER_19_167
*465 FILLER_19_169
*466 FILLER_19_181
*467 FILLER_19_193
*468 FILLER_19_205
*469 FILLER_19_217
*470 FILLER_19_223
*471 FILLER_19_225
*472 FILLER_19_237
*473 FILLER_19_249
*474 FILLER_19_261
*475 FILLER_19_27
*476 FILLER_19_273
*477 FILLER_19_279
*478 FILLER_19_281
*479 FILLER_19_293
*480 FILLER_19_3
*481 FILLER_19_305
*482 FILLER_19_317
*483 FILLER_19_329
*484 FILLER_19_335
*485 FILLER_19_337
*486 FILLER_19_349
*487 FILLER_19_361
*488 FILLER_19_373
*489 FILLER_19_385
*490 FILLER_19_39
*491 FILLER_19_391
*492 FILLER_19_393
*493 FILLER_19_405
*494 FILLER_19_51
*495 FILLER_19_55
*496 FILLER_19_57
*497 FILLER_19_69
*498 FILLER_19_81
*499 FILLER_19_93
*500 FILLER_1_105
*501 FILLER_1_111
*502 FILLER_1_113
*503 FILLER_1_125
*504 FILLER_1_137
*505 FILLER_1_149
*506 FILLER_1_15
*507 FILLER_1_161
*508 FILLER_1_167
*509 FILLER_1_169
*510 FILLER_1_181
*511 FILLER_1_193
*512 FILLER_1_205
*513 FILLER_1_217
*514 FILLER_1_223
*515 FILLER_1_225
*516 FILLER_1_237
*517 FILLER_1_249
*518 FILLER_1_261
*519 FILLER_1_27
*520 FILLER_1_273
*521 FILLER_1_279
*522 FILLER_1_281
*523 FILLER_1_293
*524 FILLER_1_3
*525 FILLER_1_305
*526 FILLER_1_317
*527 FILLER_1_329
*528 FILLER_1_335
*529 FILLER_1_337
*530 FILLER_1_349
*531 FILLER_1_361
*532 FILLER_1_373
*533 FILLER_1_385
*534 FILLER_1_39
*535 FILLER_1_391
*536 FILLER_1_393
*537 FILLER_1_405
*538 FILLER_1_51
*539 FILLER_1_55
*540 FILLER_1_57
*541 FILLER_1_69
*542 FILLER_1_81
*543 FILLER_1_93
*544 FILLER_20_109
*545 FILLER_20_121
*546 FILLER_20_133
*547 FILLER_20_139
*548 FILLER_20_141
*549 FILLER_20_15
*550 FILLER_20_153
*551 FILLER_20_165
*552 FILLER_20_177
*553 FILLER_20_189
*554 FILLER_20_195
*555 FILLER_20_197
*556 FILLER_20_209
*557 FILLER_20_221
*558 FILLER_20_233
*559 FILLER_20_245
*560 FILLER_20_251
*561 FILLER_20_253
*562 FILLER_20_265
*563 FILLER_20_27
*564 FILLER_20_277
*565 FILLER_20_289
*566 FILLER_20_29
*567 FILLER_20_3
*568 FILLER_20_301
*569 FILLER_20_307
*570 FILLER_20_309
*571 FILLER_20_321
*572 FILLER_20_333
*573 FILLER_20_345
*574 FILLER_20_357
*575 FILLER_20_363
*576 FILLER_20_365
*577 FILLER_20_377
*578 FILLER_20_389
*579 FILLER_20_401
*580 FILLER_20_41
*581 FILLER_20_53
*582 FILLER_20_65
*583 FILLER_20_77
*584 FILLER_20_83
*585 FILLER_20_85
*586 FILLER_20_97
*587 FILLER_21_105
*588 FILLER_21_111
*589 FILLER_21_113
*590 FILLER_21_125
*591 FILLER_21_137
*592 FILLER_21_149
*593 FILLER_21_15
*594 FILLER_21_161
*595 FILLER_21_167
*596 FILLER_21_169
*597 FILLER_21_181
*598 FILLER_21_193
*599 FILLER_21_205
*600 FILLER_21_217
*601 FILLER_21_223
*602 FILLER_21_225
*603 FILLER_21_237
*604 FILLER_21_249
*605 FILLER_21_261
*606 FILLER_21_27
*607 FILLER_21_273
*608 FILLER_21_279
*609 FILLER_21_281
*610 FILLER_21_293
*611 FILLER_21_3
*612 FILLER_21_305
*613 FILLER_21_317
*614 FILLER_21_329
*615 FILLER_21_335
*616 FILLER_21_337
*617 FILLER_21_349
*618 FILLER_21_361
*619 FILLER_21_373
*620 FILLER_21_385
*621 FILLER_21_39
*622 FILLER_21_391
*623 FILLER_21_393
*624 FILLER_21_405
*625 FILLER_21_51
*626 FILLER_21_55
*627 FILLER_21_57
*628 FILLER_21_69
*629 FILLER_21_81
*630 FILLER_21_93
*631 FILLER_22_109
*632 FILLER_22_121
*633 FILLER_22_133
*634 FILLER_22_139
*635 FILLER_22_141
*636 FILLER_22_15
*637 FILLER_22_153
*638 FILLER_22_165
*639 FILLER_22_177
*640 FILLER_22_189
*641 FILLER_22_195
*642 FILLER_22_197
*643 FILLER_22_209
*644 FILLER_22_221
*645 FILLER_22_233
*646 FILLER_22_245
*647 FILLER_22_251
*648 FILLER_22_253
*649 FILLER_22_265
*650 FILLER_22_27
*651 FILLER_22_277
*652 FILLER_22_289
*653 FILLER_22_29
*654 FILLER_22_3
*655 FILLER_22_301
*656 FILLER_22_307
*657 FILLER_22_309
*658 FILLER_22_321
*659 FILLER_22_333
*660 FILLER_22_345
*661 FILLER_22_357
*662 FILLER_22_363
*663 FILLER_22_365
*664 FILLER_22_377
*665 FILLER_22_389
*666 FILLER_22_401
*667 FILLER_22_41
*668 FILLER_22_53
*669 FILLER_22_65
*670 FILLER_22_77
*671 FILLER_22_83
*672 FILLER_22_85
*673 FILLER_22_97
*674 FILLER_23_105
*675 FILLER_23_111
*676 FILLER_23_113
*677 FILLER_23_125
*678 FILLER_23_137
*679 FILLER_23_149
*680 FILLER_23_15
*681 FILLER_23_161
*682 FILLER_23_167
*683 FILLER_23_169
*684 FILLER_23_181
*685 FILLER_23_193
*686 FILLER_23_205
*687 FILLER_23_217
*688 FILLER_23_223
*689 FILLER_23_225
*690 FILLER_23_237
*691 FILLER_23_249
*692 FILLER_23_261
*693 FILLER_23_27
*694 FILLER_23_273
*695 FILLER_23_279
*696 FILLER_23_281
*697 FILLER_23_293
*698 FILLER_23_3
*699 FILLER_23_305
*700 FILLER_23_317
*701 FILLER_23_329
*702 FILLER_23_335
*703 FILLER_23_337
*704 FILLER_23_349
*705 FILLER_23_361
*706 FILLER_23_373
*707 FILLER_23_385
*708 FILLER_23_39
*709 FILLER_23_391
*710 FILLER_23_393
*711 FILLER_23_405
*712 FILLER_23_51
*713 FILLER_23_55
*714 FILLER_23_57
*715 FILLER_23_69
*716 FILLER_23_81
*717 FILLER_23_93
*718 FILLER_24_109
*719 FILLER_24_121
*720 FILLER_24_133
*721 FILLER_24_139
*722 FILLER_24_141
*723 FILLER_24_15
*724 FILLER_24_153
*725 FILLER_24_165
*726 FILLER_24_177
*727 FILLER_24_189
*728 FILLER_24_195
*729 FILLER_24_197
*730 FILLER_24_209
*731 FILLER_24_221
*732 FILLER_24_233
*733 FILLER_24_245
*734 FILLER_24_251
*735 FILLER_24_253
*736 FILLER_24_265
*737 FILLER_24_27
*738 FILLER_24_277
*739 FILLER_24_289
*740 FILLER_24_29
*741 FILLER_24_3
*742 FILLER_24_301
*743 FILLER_24_307
*744 FILLER_24_309
*745 FILLER_24_321
*746 FILLER_24_333
*747 FILLER_24_345
*748 FILLER_24_357
*749 FILLER_24_363
*750 FILLER_24_365
*751 FILLER_24_377
*752 FILLER_24_389
*753 FILLER_24_401
*754 FILLER_24_41
*755 FILLER_24_53
*756 FILLER_24_65
*757 FILLER_24_77
*758 FILLER_24_83
*759 FILLER_24_85
*760 FILLER_24_97
*761 FILLER_25_105
*762 FILLER_25_111
*763 FILLER_25_113
*764 FILLER_25_125
*765 FILLER_25_137
*766 FILLER_25_149
*767 FILLER_25_15
*768 FILLER_25_161
*769 FILLER_25_167
*770 FILLER_25_169
*771 FILLER_25_181
*772 FILLER_25_193
*773 FILLER_25_205
*774 FILLER_25_217
*775 FILLER_25_223
*776 FILLER_25_225
*777 FILLER_25_237
*778 FILLER_25_249
*779 FILLER_25_261
*780 FILLER_25_27
*781 FILLER_25_273
*782 FILLER_25_279
*783 FILLER_25_281
*784 FILLER_25_293
*785 FILLER_25_3
*786 FILLER_25_305
*787 FILLER_25_317
*788 FILLER_25_329
*789 FILLER_25_335
*790 FILLER_25_337
*791 FILLER_25_349
*792 FILLER_25_361
*793 FILLER_25_373
*794 FILLER_25_385
*795 FILLER_25_39
*796 FILLER_25_391
*797 FILLER_25_393
*798 FILLER_25_405
*799 FILLER_25_51
*800 FILLER_25_55
*801 FILLER_25_57
*802 FILLER_25_69
*803 FILLER_25_81
*804 FILLER_25_93
*805 FILLER_26_109
*806 FILLER_26_121
*807 FILLER_26_133
*808 FILLER_26_139
*809 FILLER_26_141
*810 FILLER_26_15
*811 FILLER_26_153
*812 FILLER_26_165
*813 FILLER_26_177
*814 FILLER_26_189
*815 FILLER_26_195
*816 FILLER_26_197
*817 FILLER_26_209
*818 FILLER_26_221
*819 FILLER_26_233
*820 FILLER_26_245
*821 FILLER_26_251
*822 FILLER_26_253
*823 FILLER_26_265
*824 FILLER_26_27
*825 FILLER_26_277
*826 FILLER_26_289
*827 FILLER_26_29
*828 FILLER_26_3
*829 FILLER_26_301
*830 FILLER_26_307
*831 FILLER_26_309
*832 FILLER_26_321
*833 FILLER_26_333
*834 FILLER_26_345
*835 FILLER_26_357
*836 FILLER_26_363
*837 FILLER_26_365
*838 FILLER_26_377
*839 FILLER_26_389
*840 FILLER_26_401
*841 FILLER_26_41
*842 FILLER_26_53
*843 FILLER_26_65
*844 FILLER_26_77
*845 FILLER_26_83
*846 FILLER_26_85
*847 FILLER_26_97
*848 FILLER_27_105
*849 FILLER_27_111
*850 FILLER_27_113
*851 FILLER_27_125
*852 FILLER_27_137
*853 FILLER_27_149
*854 FILLER_27_15
*855 FILLER_27_161
*856 FILLER_27_167
*857 FILLER_27_169
*858 FILLER_27_181
*859 FILLER_27_193
*860 FILLER_27_205
*861 FILLER_27_217
*862 FILLER_27_223
*863 FILLER_27_225
*864 FILLER_27_237
*865 FILLER_27_249
*866 FILLER_27_261
*867 FILLER_27_27
*868 FILLER_27_273
*869 FILLER_27_279
*870 FILLER_27_281
*871 FILLER_27_293
*872 FILLER_27_3
*873 FILLER_27_305
*874 FILLER_27_317
*875 FILLER_27_329
*876 FILLER_27_335
*877 FILLER_27_337
*878 FILLER_27_349
*879 FILLER_27_361
*880 FILLER_27_373
*881 FILLER_27_385
*882 FILLER_27_39
*883 FILLER_27_391
*884 FILLER_27_393
*885 FILLER_27_405
*886 FILLER_27_51
*887 FILLER_27_55
*888 FILLER_27_57
*889 FILLER_27_69
*890 FILLER_27_81
*891 FILLER_27_93
*892 FILLER_28_109
*893 FILLER_28_121
*894 FILLER_28_133
*895 FILLER_28_139
*896 FILLER_28_141
*897 FILLER_28_15
*898 FILLER_28_153
*899 FILLER_28_165
*900 FILLER_28_177
*901 FILLER_28_189
*902 FILLER_28_195
*903 FILLER_28_197
*904 FILLER_28_209
*905 FILLER_28_221
*906 FILLER_28_233
*907 FILLER_28_245
*908 FILLER_28_251
*909 FILLER_28_253
*910 FILLER_28_265
*911 FILLER_28_27
*912 FILLER_28_277
*913 FILLER_28_289
*914 FILLER_28_29
*915 FILLER_28_3
*916 FILLER_28_301
*917 FILLER_28_307
*918 FILLER_28_309
*919 FILLER_28_321
*920 FILLER_28_333
*921 FILLER_28_345
*922 FILLER_28_357
*923 FILLER_28_363
*924 FILLER_28_365
*925 FILLER_28_377
*926 FILLER_28_389
*927 FILLER_28_401
*928 FILLER_28_41
*929 FILLER_28_53
*930 FILLER_28_65
*931 FILLER_28_77
*932 FILLER_28_83
*933 FILLER_28_85
*934 FILLER_28_97
*935 FILLER_29_105
*936 FILLER_29_111
*937 FILLER_29_113
*938 FILLER_29_125
*939 FILLER_29_137
*940 FILLER_29_149
*941 FILLER_29_15
*942 FILLER_29_161
*943 FILLER_29_167
*944 FILLER_29_169
*945 FILLER_29_181
*946 FILLER_29_193
*947 FILLER_29_205
*948 FILLER_29_217
*949 FILLER_29_223
*950 FILLER_29_225
*951 FILLER_29_237
*952 FILLER_29_249
*953 FILLER_29_261
*954 FILLER_29_27
*955 FILLER_29_273
*956 FILLER_29_279
*957 FILLER_29_281
*958 FILLER_29_293
*959 FILLER_29_3
*960 FILLER_29_305
*961 FILLER_29_317
*962 FILLER_29_329
*963 FILLER_29_335
*964 FILLER_29_337
*965 FILLER_29_349
*966 FILLER_29_361
*967 FILLER_29_373
*968 FILLER_29_385
*969 FILLER_29_39
*970 FILLER_29_391
*971 FILLER_29_393
*972 FILLER_29_405
*973 FILLER_29_51
*974 FILLER_29_55
*975 FILLER_29_57
*976 FILLER_29_69
*977 FILLER_29_81
*978 FILLER_29_93
*979 FILLER_2_109
*980 FILLER_2_121
*981 FILLER_2_133
*982 FILLER_2_139
*983 FILLER_2_141
*984 FILLER_2_15
*985 FILLER_2_153
*986 FILLER_2_165
*987 FILLER_2_177
*988 FILLER_2_189
*989 FILLER_2_195
*990 FILLER_2_197
*991 FILLER_2_209
*992 FILLER_2_221
*993 FILLER_2_233
*994 FILLER_2_245
*995 FILLER_2_251
*996 FILLER_2_253
*997 FILLER_2_265
*998 FILLER_2_27
*999 FILLER_2_277
*1000 FILLER_2_289
*1001 FILLER_2_29
*1002 FILLER_2_3
*1003 FILLER_2_301
*1004 FILLER_2_307
*1005 FILLER_2_309
*1006 FILLER_2_321
*1007 FILLER_2_333
*1008 FILLER_2_345
*1009 FILLER_2_357
*1010 FILLER_2_363
*1011 FILLER_2_365
*1012 FILLER_2_377
*1013 FILLER_2_389
*1014 FILLER_2_401
*1015 FILLER_2_41
*1016 FILLER_2_53
*1017 FILLER_2_65
*1018 FILLER_2_77
*1019 FILLER_2_83
*1020 FILLER_2_85
*1021 FILLER_2_97
*1022 FILLER_30_109
*1023 FILLER_30_121
*1024 FILLER_30_133
*1025 FILLER_30_139
*1026 FILLER_30_141
*1027 FILLER_30_15
*1028 FILLER_30_153
*1029 FILLER_30_165
*1030 FILLER_30_177
*1031 FILLER_30_189
*1032 FILLER_30_195
*1033 FILLER_30_197
*1034 FILLER_30_209
*1035 FILLER_30_221
*1036 FILLER_30_233
*1037 FILLER_30_245
*1038 FILLER_30_251
*1039 FILLER_30_253
*1040 FILLER_30_265
*1041 FILLER_30_27
*1042 FILLER_30_277
*1043 FILLER_30_289
*1044 FILLER_30_29
*1045 FILLER_30_3
*1046 FILLER_30_301
*1047 FILLER_30_307
*1048 FILLER_30_309
*1049 FILLER_30_321
*1050 FILLER_30_333
*1051 FILLER_30_345
*1052 FILLER_30_357
*1053 FILLER_30_363
*1054 FILLER_30_365
*1055 FILLER_30_377
*1056 FILLER_30_389
*1057 FILLER_30_401
*1058 FILLER_30_41
*1059 FILLER_30_53
*1060 FILLER_30_65
*1061 FILLER_30_77
*1062 FILLER_30_83
*1063 FILLER_30_85
*1064 FILLER_30_97
*1065 FILLER_31_105
*1066 FILLER_31_111
*1067 FILLER_31_113
*1068 FILLER_31_125
*1069 FILLER_31_137
*1070 FILLER_31_149
*1071 FILLER_31_161
*1072 FILLER_31_167
*1073 FILLER_31_169
*1074 FILLER_31_18
*1075 FILLER_31_181
*1076 FILLER_31_193
*1077 FILLER_31_205
*1078 FILLER_31_217
*1079 FILLER_31_223
*1080 FILLER_31_225
*1081 FILLER_31_237
*1082 FILLER_31_249
*1083 FILLER_31_261
*1084 FILLER_31_273
*1085 FILLER_31_279
*1086 FILLER_31_281
*1087 FILLER_31_293
*1088 FILLER_31_30
*1089 FILLER_31_305
*1090 FILLER_31_317
*1091 FILLER_31_329
*1092 FILLER_31_335
*1093 FILLER_31_337
*1094 FILLER_31_349
*1095 FILLER_31_361
*1096 FILLER_31_373
*1097 FILLER_31_385
*1098 FILLER_31_391
*1099 FILLER_31_393
*1100 FILLER_31_401
*1101 FILLER_31_42
*1102 FILLER_31_54
*1103 FILLER_31_57
*1104 FILLER_31_6
*1105 FILLER_31_69
*1106 FILLER_31_81
*1107 FILLER_31_93
*1108 FILLER_32_109
*1109 FILLER_32_121
*1110 FILLER_32_133
*1111 FILLER_32_139
*1112 FILLER_32_141
*1113 FILLER_32_153
*1114 FILLER_32_165
*1115 FILLER_32_177
*1116 FILLER_32_18
*1117 FILLER_32_181
*1118 FILLER_32_195
*1119 FILLER_32_202
*1120 FILLER_32_208
*1121 FILLER_32_212
*1122 FILLER_32_224
*1123 FILLER_32_236
*1124 FILLER_32_248
*1125 FILLER_32_253
*1126 FILLER_32_26
*1127 FILLER_32_265
*1128 FILLER_32_277
*1129 FILLER_32_289
*1130 FILLER_32_29
*1131 FILLER_32_301
*1132 FILLER_32_307
*1133 FILLER_32_309
*1134 FILLER_32_321
*1135 FILLER_32_333
*1136 FILLER_32_345
*1137 FILLER_32_357
*1138 FILLER_32_363
*1139 FILLER_32_365
*1140 FILLER_32_377
*1141 FILLER_32_389
*1142 FILLER_32_401
*1143 FILLER_32_41
*1144 FILLER_32_53
*1145 FILLER_32_6
*1146 FILLER_32_65
*1147 FILLER_32_77
*1148 FILLER_32_83
*1149 FILLER_32_85
*1150 FILLER_32_97
*1151 FILLER_33_105
*1152 FILLER_33_111
*1153 FILLER_33_113
*1154 FILLER_33_125
*1155 FILLER_33_137
*1156 FILLER_33_149
*1157 FILLER_33_15
*1158 FILLER_33_161
*1159 FILLER_33_167
*1160 FILLER_33_169
*1161 FILLER_33_181
*1162 FILLER_33_193
*1163 FILLER_33_205
*1164 FILLER_33_217
*1165 FILLER_33_223
*1166 FILLER_33_225
*1167 FILLER_33_237
*1168 FILLER_33_249
*1169 FILLER_33_261
*1170 FILLER_33_27
*1171 FILLER_33_273
*1172 FILLER_33_279
*1173 FILLER_33_281
*1174 FILLER_33_293
*1175 FILLER_33_3
*1176 FILLER_33_305
*1177 FILLER_33_317
*1178 FILLER_33_329
*1179 FILLER_33_335
*1180 FILLER_33_337
*1181 FILLER_33_349
*1182 FILLER_33_361
*1183 FILLER_33_373
*1184 FILLER_33_385
*1185 FILLER_33_39
*1186 FILLER_33_391
*1187 FILLER_33_393
*1188 FILLER_33_405
*1189 FILLER_33_51
*1190 FILLER_33_55
*1191 FILLER_33_57
*1192 FILLER_33_69
*1193 FILLER_33_81
*1194 FILLER_33_93
*1195 FILLER_34_109
*1196 FILLER_34_121
*1197 FILLER_34_133
*1198 FILLER_34_139
*1199 FILLER_34_141
*1200 FILLER_34_153
*1201 FILLER_34_165
*1202 FILLER_34_177
*1203 FILLER_34_189
*1204 FILLER_34_19
*1205 FILLER_34_195
*1206 FILLER_34_201
*1207 FILLER_34_213
*1208 FILLER_34_225
*1209 FILLER_34_237
*1210 FILLER_34_249
*1211 FILLER_34_253
*1212 FILLER_34_265
*1213 FILLER_34_27
*1214 FILLER_34_277
*1215 FILLER_34_289
*1216 FILLER_34_29
*1217 FILLER_34_301
*1218 FILLER_34_307
*1219 FILLER_34_309
*1220 FILLER_34_321
*1221 FILLER_34_333
*1222 FILLER_34_345
*1223 FILLER_34_357
*1224 FILLER_34_363
*1225 FILLER_34_365
*1226 FILLER_34_377
*1227 FILLER_34_389
*1228 FILLER_34_401
*1229 FILLER_34_41
*1230 FILLER_34_53
*1231 FILLER_34_65
*1232 FILLER_34_7
*1233 FILLER_34_77
*1234 FILLER_34_83
*1235 FILLER_34_85
*1236 FILLER_34_97
*1237 FILLER_35_105
*1238 FILLER_35_111
*1239 FILLER_35_113
*1240 FILLER_35_125
*1241 FILLER_35_137
*1242 FILLER_35_149
*1243 FILLER_35_161
*1244 FILLER_35_167
*1245 FILLER_35_169
*1246 FILLER_35_181
*1247 FILLER_35_19
*1248 FILLER_35_193
*1249 FILLER_35_205
*1250 FILLER_35_217
*1251 FILLER_35_223
*1252 FILLER_35_225
*1253 FILLER_35_237
*1254 FILLER_35_249
*1255 FILLER_35_261
*1256 FILLER_35_273
*1257 FILLER_35_279
*1258 FILLER_35_281
*1259 FILLER_35_293
*1260 FILLER_35_305
*1261 FILLER_35_31
*1262 FILLER_35_317
*1263 FILLER_35_329
*1264 FILLER_35_335
*1265 FILLER_35_337
*1266 FILLER_35_349
*1267 FILLER_35_361
*1268 FILLER_35_373
*1269 FILLER_35_385
*1270 FILLER_35_391
*1271 FILLER_35_393
*1272 FILLER_35_405
*1273 FILLER_35_43
*1274 FILLER_35_55
*1275 FILLER_35_57
*1276 FILLER_35_69
*1277 FILLER_35_7
*1278 FILLER_35_81
*1279 FILLER_35_93
*1280 FILLER_36_109
*1281 FILLER_36_121
*1282 FILLER_36_133
*1283 FILLER_36_139
*1284 FILLER_36_141
*1285 FILLER_36_15
*1286 FILLER_36_153
*1287 FILLER_36_165
*1288 FILLER_36_177
*1289 FILLER_36_189
*1290 FILLER_36_195
*1291 FILLER_36_197
*1292 FILLER_36_209
*1293 FILLER_36_221
*1294 FILLER_36_233
*1295 FILLER_36_245
*1296 FILLER_36_251
*1297 FILLER_36_253
*1298 FILLER_36_265
*1299 FILLER_36_27
*1300 FILLER_36_277
*1301 FILLER_36_289
*1302 FILLER_36_29
*1303 FILLER_36_3
*1304 FILLER_36_301
*1305 FILLER_36_307
*1306 FILLER_36_309
*1307 FILLER_36_321
*1308 FILLER_36_333
*1309 FILLER_36_345
*1310 FILLER_36_357
*1311 FILLER_36_363
*1312 FILLER_36_365
*1313 FILLER_36_377
*1314 FILLER_36_389
*1315 FILLER_36_401
*1316 FILLER_36_41
*1317 FILLER_36_53
*1318 FILLER_36_65
*1319 FILLER_36_77
*1320 FILLER_36_83
*1321 FILLER_36_85
*1322 FILLER_36_97
*1323 FILLER_37_105
*1324 FILLER_37_111
*1325 FILLER_37_113
*1326 FILLER_37_125
*1327 FILLER_37_137
*1328 FILLER_37_149
*1329 FILLER_37_15
*1330 FILLER_37_161
*1331 FILLER_37_167
*1332 FILLER_37_169
*1333 FILLER_37_181
*1334 FILLER_37_193
*1335 FILLER_37_205
*1336 FILLER_37_217
*1337 FILLER_37_223
*1338 FILLER_37_225
*1339 FILLER_37_237
*1340 FILLER_37_249
*1341 FILLER_37_261
*1342 FILLER_37_27
*1343 FILLER_37_273
*1344 FILLER_37_279
*1345 FILLER_37_281
*1346 FILLER_37_293
*1347 FILLER_37_3
*1348 FILLER_37_305
*1349 FILLER_37_317
*1350 FILLER_37_329
*1351 FILLER_37_335
*1352 FILLER_37_337
*1353 FILLER_37_349
*1354 FILLER_37_361
*1355 FILLER_37_373
*1356 FILLER_37_385
*1357 FILLER_37_39
*1358 FILLER_37_391
*1359 FILLER_37_393
*1360 FILLER_37_405
*1361 FILLER_37_51
*1362 FILLER_37_55
*1363 FILLER_37_57
*1364 FILLER_37_69
*1365 FILLER_37_81
*1366 FILLER_37_93
*1367 FILLER_38_109
*1368 FILLER_38_121
*1369 FILLER_38_133
*1370 FILLER_38_139
*1371 FILLER_38_141
*1372 FILLER_38_15
*1373 FILLER_38_153
*1374 FILLER_38_165
*1375 FILLER_38_177
*1376 FILLER_38_189
*1377 FILLER_38_195
*1378 FILLER_38_197
*1379 FILLER_38_209
*1380 FILLER_38_221
*1381 FILLER_38_233
*1382 FILLER_38_245
*1383 FILLER_38_251
*1384 FILLER_38_253
*1385 FILLER_38_265
*1386 FILLER_38_27
*1387 FILLER_38_277
*1388 FILLER_38_289
*1389 FILLER_38_29
*1390 FILLER_38_3
*1391 FILLER_38_301
*1392 FILLER_38_307
*1393 FILLER_38_309
*1394 FILLER_38_321
*1395 FILLER_38_333
*1396 FILLER_38_345
*1397 FILLER_38_357
*1398 FILLER_38_363
*1399 FILLER_38_365
*1400 FILLER_38_377
*1401 FILLER_38_389
*1402 FILLER_38_401
*1403 FILLER_38_41
*1404 FILLER_38_53
*1405 FILLER_38_65
*1406 FILLER_38_77
*1407 FILLER_38_83
*1408 FILLER_38_85
*1409 FILLER_38_97
*1410 FILLER_39_105
*1411 FILLER_39_111
*1412 FILLER_39_113
*1413 FILLER_39_125
*1414 FILLER_39_137
*1415 FILLER_39_149
*1416 FILLER_39_15
*1417 FILLER_39_161
*1418 FILLER_39_167
*1419 FILLER_39_169
*1420 FILLER_39_181
*1421 FILLER_39_193
*1422 FILLER_39_205
*1423 FILLER_39_217
*1424 FILLER_39_223
*1425 FILLER_39_225
*1426 FILLER_39_237
*1427 FILLER_39_249
*1428 FILLER_39_261
*1429 FILLER_39_27
*1430 FILLER_39_273
*1431 FILLER_39_279
*1432 FILLER_39_281
*1433 FILLER_39_293
*1434 FILLER_39_3
*1435 FILLER_39_305
*1436 FILLER_39_317
*1437 FILLER_39_329
*1438 FILLER_39_335
*1439 FILLER_39_337
*1440 FILLER_39_349
*1441 FILLER_39_361
*1442 FILLER_39_373
*1443 FILLER_39_385
*1444 FILLER_39_39
*1445 FILLER_39_391
*1446 FILLER_39_393
*1447 FILLER_39_405
*1448 FILLER_39_51
*1449 FILLER_39_55
*1450 FILLER_39_57
*1451 FILLER_39_69
*1452 FILLER_39_81
*1453 FILLER_39_93
*1454 FILLER_3_105
*1455 FILLER_3_111
*1456 FILLER_3_113
*1457 FILLER_3_125
*1458 FILLER_3_137
*1459 FILLER_3_149
*1460 FILLER_3_15
*1461 FILLER_3_161
*1462 FILLER_3_167
*1463 FILLER_3_169
*1464 FILLER_3_181
*1465 FILLER_3_193
*1466 FILLER_3_205
*1467 FILLER_3_217
*1468 FILLER_3_223
*1469 FILLER_3_225
*1470 FILLER_3_237
*1471 FILLER_3_249
*1472 FILLER_3_261
*1473 FILLER_3_27
*1474 FILLER_3_273
*1475 FILLER_3_279
*1476 FILLER_3_281
*1477 FILLER_3_293
*1478 FILLER_3_3
*1479 FILLER_3_305
*1480 FILLER_3_317
*1481 FILLER_3_329
*1482 FILLER_3_335
*1483 FILLER_3_337
*1484 FILLER_3_349
*1485 FILLER_3_361
*1486 FILLER_3_373
*1487 FILLER_3_385
*1488 FILLER_3_39
*1489 FILLER_3_391
*1490 FILLER_3_393
*1491 FILLER_3_405
*1492 FILLER_3_51
*1493 FILLER_3_55
*1494 FILLER_3_57
*1495 FILLER_3_69
*1496 FILLER_3_81
*1497 FILLER_3_93
*1498 FILLER_40_109
*1499 FILLER_40_121
*1500 FILLER_40_133
*1501 FILLER_40_139
*1502 FILLER_40_141
*1503 FILLER_40_15
*1504 FILLER_40_153
*1505 FILLER_40_165
*1506 FILLER_40_177
*1507 FILLER_40_189
*1508 FILLER_40_195
*1509 FILLER_40_197
*1510 FILLER_40_209
*1511 FILLER_40_221
*1512 FILLER_40_233
*1513 FILLER_40_245
*1514 FILLER_40_251
*1515 FILLER_40_253
*1516 FILLER_40_265
*1517 FILLER_40_27
*1518 FILLER_40_277
*1519 FILLER_40_289
*1520 FILLER_40_29
*1521 FILLER_40_3
*1522 FILLER_40_301
*1523 FILLER_40_307
*1524 FILLER_40_309
*1525 FILLER_40_321
*1526 FILLER_40_333
*1527 FILLER_40_345
*1528 FILLER_40_357
*1529 FILLER_40_363
*1530 FILLER_40_365
*1531 FILLER_40_377
*1532 FILLER_40_389
*1533 FILLER_40_401
*1534 FILLER_40_41
*1535 FILLER_40_53
*1536 FILLER_40_65
*1537 FILLER_40_77
*1538 FILLER_40_83
*1539 FILLER_40_85
*1540 FILLER_40_97
*1541 FILLER_41_105
*1542 FILLER_41_111
*1543 FILLER_41_113
*1544 FILLER_41_125
*1545 FILLER_41_137
*1546 FILLER_41_149
*1547 FILLER_41_15
*1548 FILLER_41_161
*1549 FILLER_41_167
*1550 FILLER_41_169
*1551 FILLER_41_181
*1552 FILLER_41_193
*1553 FILLER_41_205
*1554 FILLER_41_217
*1555 FILLER_41_223
*1556 FILLER_41_225
*1557 FILLER_41_237
*1558 FILLER_41_249
*1559 FILLER_41_261
*1560 FILLER_41_27
*1561 FILLER_41_273
*1562 FILLER_41_279
*1563 FILLER_41_281
*1564 FILLER_41_293
*1565 FILLER_41_3
*1566 FILLER_41_305
*1567 FILLER_41_317
*1568 FILLER_41_329
*1569 FILLER_41_335
*1570 FILLER_41_337
*1571 FILLER_41_349
*1572 FILLER_41_361
*1573 FILLER_41_373
*1574 FILLER_41_385
*1575 FILLER_41_39
*1576 FILLER_41_391