*SPEF "ieee 1481-1999"
*DESIGN "mult4_SARSA_RUIDO_e9_SARSA_RUIDO_e9_SarsaNStepsRuido_e9_SARSA_RUIDO_e9"
*DATE "11:49:47 Wednesday September 17, 2025"
*VENDOR "The OpenROAD Project"
*PROGRAM "OpenROAD"
*VERSION "edf00dff99f6c40d67a30c0e22a8191c5d2ed9d6"
*DESIGN_FLOW "NAME_SCOPE LOCAL" "PIN_CAP NONE"
*DIVIDER /
*DELIMITER :
*BUS_DELIMITER []
*T_UNIT 1 NS
*C_UNIT 1 PF
*R_UNIT 1 OHM
*L_UNIT 1 HENRY

*NAME_MAP
*1 A[0]
*2 A[1]
*3 A[2]
*4 A[3]
*5 B[0]
*6 B[1]
*7 B[2]
*8 B[3]
*9 P[0]
*10 P[1]
*11 P[2]
*12 P[3]
*13 P[4]
*14 P[5]
*15 P[6]
*16 P[7]
*19 _000_
*20 _001_
*21 _002_
*22 _003_
*23 _004_
*24 _005_
*25 _006_
*26 _007_
*27 _008_
*28 _009_
*29 _010_
*30 _011_
*31 _012_
*32 _013_
*33 _014_
*34 _015_
*35 _016_
*36 _017_
*37 _018_
*38 _019_
*39 _020_
*40 _021_
*41 _022_
*42 _023_
*43 _024_
*44 _025_
*45 _026_
*46 _027_
*47 _028_
*48 _029_
*49 _030_
*50 _031_
*51 _032_
*52 _033_
*53 _034_
*54 _035_
*55 _036_
*56 _037_
*57 _038_
*58 _039_
*59 _040_
*60 _041_
*61 _042_
*62 _043_
*63 _044_
*64 _045_
*65 _046_
*66 _047_
*67 _048_
*68 _049_
*69 net1
*70 net10
*71 net11
*72 net12
*73 net13
*74 net14
*75 net15
*76 net16
*77 net2
*78 net3
*79 net4
*80 net5
*81 net6
*82 net7
*83 net8
*84 net9
*85 FILLER_0_11
*86 FILLER_0_18
*87 FILLER_0_29
*88 FILLER_0_3
*89 FILLER_0_49
*90 FILLER_0_62
*91 FILLER_0_74
*92 FILLER_0_80
*93 FILLER_1_13
*94 FILLER_1_20
*95 FILLER_1_26
*96 FILLER_1_46
*97 FILLER_1_50
*98 FILLER_1_68
*99 FILLER_1_80
*100 FILLER_2_13
*101 FILLER_2_19
*102 FILLER_2_26
*103 FILLER_2_37
*104 FILLER_2_45
*105 FILLER_2_57
*106 FILLER_2_69
*107 FILLER_3_15
*108 FILLER_3_27
*109 FILLER_3_38
*110 FILLER_3_55
*111 FILLER_3_57
*112 FILLER_3_6
*113 FILLER_3_65
*114 FILLER_3_79
*115 FILLER_4_17
*116 FILLER_4_29
*117 FILLER_4_34
*118 FILLER_4_41
*119 FILLER_4_53
*120 FILLER_4_65
*121 FILLER_4_7
*122 FILLER_4_70
*123 FILLER_4_76
*124 FILLER_5_18
*125 FILLER_5_24
*126 FILLER_5_28
*127 FILLER_5_37
*128 FILLER_5_45
*129 FILLER_5_53
*130 FILLER_5_57
*131 FILLER_5_65
*132 FILLER_5_76
*133 FILLER_6_27
*134 FILLER_6_37
*135 FILLER_6_52
*136 FILLER_6_64
*137 FILLER_6_74
*138 FILLER_6_80
*139 FILLER_7_16
*140 FILLER_7_28
*141 FILLER_7_40
*142 FILLER_7_52
*143 FILLER_7_57
*144 FILLER_7_65
*145 FILLER_7_75
*146 FILLER_8_20
*147 FILLER_8_29
*148 FILLER_8_3
*149 FILLER_8_48
*150 FILLER_8_73
*151 FILLER_9_15
*152 FILLER_9_3
*153 FILLER_9_36
*154 FILLER_9_48
*155 FILLER_9_67
*156 FILLER_9_75
*157 PHY_EDGE_ROW_0_Left_10
*158 PHY_EDGE_ROW_0_Right_0
*159 PHY_EDGE_ROW_1_Left_11
*160 PHY_EDGE_ROW_1_Right_1
*161 PHY_EDGE_ROW_2_Left_12
*162 PHY_EDGE_ROW_2_Right_2
*163 PHY_EDGE_ROW_3_Left_13
*164 PHY_EDGE_ROW_3_Right_3
*165 PHY_EDGE_ROW_4_Left_14
*166 PHY_EDGE_ROW_4_Right_4
*167 PHY_EDGE_ROW_5_Left_15
*168 PHY_EDGE_ROW_5_Right_5
*169 PHY_EDGE_ROW_6_Left_16
*170 PHY_EDGE_ROW_6_Right_6
*171 PHY_EDGE_ROW_7_Left_17
*172 PHY_EDGE_ROW_7_Right_7
*173 PHY_EDGE_ROW_8_Left_18
*174 PHY_EDGE_ROW_8_Right_8
*175 PHY_EDGE_ROW_9_Left_19
*176 PHY_EDGE_ROW_9_Right_9
*177 TAP_TAPCELL_ROW_0_20
*178 TAP_TAPCELL_ROW_0_21
*179 TAP_TAPCELL_ROW_1_22
*180 TAP_TAPCELL_ROW_2_23
*181 TAP_TAPCELL_ROW_3_24
*182 TAP_TAPCELL_ROW_4_25
*183 TAP_TAPCELL_ROW_5_26
*184 TAP_TAPCELL_ROW_6_27
*185 TAP_TAPCELL_ROW_7_28
*186 TAP_TAPCELL_ROW_8_29
*187 TAP_TAPCELL_ROW_9_30
*188 TAP_TAPCELL_ROW_9_31
*189 _050_
*190 _051_
*191 _052_
*192 _053_
*193 _054_
*194 _055_
*195 _056_
*196 _057_
*197 _058_
*198 _059_
*199 _060_
*200 _061_
*201 _062_
*202 _063_
*203 _064_
*204 _065_
*205 _066_
*206 _067_
*207 _068_
*208 _069_
*209 _070_
*210 _071_
*211 _072_
*212 _073_
*213 _074_
*214 _075_
*215 _076_
*216 _077_
*217 _078_
*218 _079_
*219 _080_
*220 _081_
*221 _082_
*222 _083_
*223 _084_
*224 _085_
*225 _086_
*226 _087_
*227 _088_
*228 _089_
*229 _090_
*230 _091_
*231 _092_
*232 _093_
*233 _094_
*234 _095_
*235 _096_
*236 _097_
*237 _098_
*238 _099_
*239 _100_
*240 _101_
*241 _102_
*242 _103_
*243 _104_
*244 _105_
*245 _106_
*246 _107_
*247 input1
*248 input2
*249 input3
*250 input4
*251 input5
*252 input6
*253 input7
*254 input8
*255 output10
*256 output11
*257 output12
*258 output13
*259 output14
*260 output15
*261 output16
*262 output9

*PORTS
A[0] I
A[1] I
A[2] I
A[3] I
B[0] I
B[1] I
B[2] I
B[3] I
P[0] O
P[1] O
P[2] O
P[3] O
P[4] O
P[5] O
P[6] O
P[7] O

*D_NET *1 0.000881041
*CONN
*P A[0] I
*I *247:A I *D sky130_fd_sc_hd__clkbuf_2
*CAP
1 A[0] 0.000440521
2 *247:A 0.000440521
3 *247:A P[0] 0
4 *247:A P[2] 0
*RES
1 A[0] *247:A 22.1929 
*END

*D_NET *2 0.000883986
*CONN
*P A[1] I
*I *248:A I *D sky130_fd_sc_hd__dlymetal6s2s_1
*CAP
1 A[1] 0.000408408
2 *248:A 0.000408408
3 *248:A P[0] 0
4 *248:A P[1] 0
5 *248:A *195:C1 1.19402e-05
6 *248:A *84:6 5.52302e-05
*RES
1 A[1] *248:A 21.8357 
*END

*D_NET *3 0.000738341
*CONN
*P A[2] I
*I *249:A I *D sky130_fd_sc_hd__clkbuf_2
*CAP
1 A[2] 0.000342877
2 *249:A 0.000342877
3 *249:A *251:A 2.25951e-05
4 *249:A *253:A 2.99915e-05
*RES
1 A[2] *249:A 21.8017 
*END

*D_NET *4 0.000574322
*CONN
*P A[3] I
*I *250:A I *D sky130_fd_sc_hd__dlymetal6s2s_1
*CAP
1 A[3] 0.000275863
2 *250:A 0.000275863
3 *250:A *254:A 2.25951e-05
*RES
1 A[3] *250:A 20.4803 
*END

*D_NET *5 0.000752792
*CONN
*P B[0] I
*I *251:A I *D sky130_fd_sc_hd__buf_1
*CAP
1 B[0] 0.000350714
2 *251:A 0.000350714
3 *251:A *252:A 2.87684e-05
4 *251:A *80:8 0
5 *249:A *251:A 2.25951e-05
*RES
1 B[0] *251:A 22.6732 
*END

*D_NET *6 0.000580857
*CONN
*P B[1] I
*I *252:A I *D sky130_fd_sc_hd__dlymetal6s2s_1
*CAP
1 B[1] 0.000276044
2 *252:A 0.000276044
3 *251:A *252:A 2.87684e-05
*RES
1 B[1] *252:A 20.4803 
*END

*D_NET *7 0.000640458
*CONN
*P B[2] I
*I *253:A I *D sky130_fd_sc_hd__dlymetal6s2s_1
*CAP
1 B[2] 0.000290849
2 *253:A 0.000290849
3 *253:A *254:A 2.87684e-05
4 *249:A *253:A 2.99915e-05
*RES
1 B[2] *253:A 21.0874 
*END

*D_NET *8 0.000529531
*CONN
*P B[3] I
*I *254:A I *D sky130_fd_sc_hd__dlymetal6s2s_1
*CAP
1 B[3] 0.000239084
2 *254:A 0.000239084
3 *254:A *79:12 0
4 *250:A *254:A 2.25951e-05
5 *253:A *254:A 2.87684e-05
*RES
1 B[3] *254:A 18.73 
*END

*D_NET *9 0.00119816
*CONN
*P P[0] O
*I *262:X O *D sky130_fd_sc_hd__buf_2
*CAP
1 P[0] 0.00056499
2 *262:X 0.00056499
3 P[0] *262:A 6.81828e-05
4 *247:A P[0] 0
5 *248:A P[0] 0
*RES
1 *262:X P[0] 23.2821 
*END

*D_NET *10 0.000940597
*CONN
*P P[1] O
*I *255:X O *D sky130_fd_sc_hd__buf_2
*CAP
1 P[1] 0.000419367
2 *255:X 0.000419367
3 P[1] *193:A3 2.8266e-06
4 P[1] *195:C1 9.90367e-05
5 *248:A P[1] 0
*RES
1 *255:X P[1] 21.6393 
*END

*D_NET *11 0.000947395
*CONN
*P P[2] O
*I *256:X O *D sky130_fd_sc_hd__buf_2
*CAP
1 P[2] 0.000473698
2 *256:X 0.000473698
3 *247:A P[2] 0
*RES
1 *256:X P[2] 22.05 
*END

*D_NET *12 0.000684309
*CONN
*P P[3] O
*I *257:X O *D sky130_fd_sc_hd__buf_2
*CAP
1 P[3] 0.000237006
2 *257:X 0.000237006
3 P[3] P[4] 9.28756e-05
4 P[3] *257:A 0.000117421
*RES
1 *257:X P[3] 19.4092 
*END

*D_NET *13 0.000562708
*CONN
*P P[4] O
*I *258:X O *D sky130_fd_sc_hd__buf_2
*CAP
1 P[4] 0.000234916
2 *258:X 0.000234916
3 P[4] *224:B 0
4 P[3] P[4] 9.28756e-05
*RES
1 *258:X P[4] 18.8021 
*END

*D_NET *14 0.000634063
*CONN
*P P[5] O
*I *259:X O *D sky130_fd_sc_hd__buf_2
*CAP
1 P[5] 0.000285659
2 *259:X 0.000285659
3 P[5] *259:A 6.27457e-05
*RES
1 *259:X P[5] 19.4092 
*END

*D_NET *15 0.00127187
*CONN
*P P[6] O
*I *260:X O *D sky130_fd_sc_hd__buf_2
*CAP
1 P[6] 0.000624565
2 *260:X 0.000624565
3 P[6] *260:A 2.27416e-05
*RES
1 *260:X P[6] 25.0321 
*END

*D_NET *16 0.00144164
*CONN
*P P[7] O
*I *261:X O *D sky130_fd_sc_hd__buf_2
*CAP
1 P[7] 0.00067887
2 *261:X 0.00067887
3 P[7] *244:C1 0
4 P[7] *261:A 8.39e-05
5 P[7] *63:10 0
*RES
1 *261:X P[7] 26.8 
*END

*D_NET *19 0.00107251
*CONN
*I *195:A1 I *D sky130_fd_sc_hd__a211oi_1
*I *193:A2 I *D sky130_fd_sc_hd__a31oi_1
*I *189:Y O *D sky130_fd_sc_hd__inv_2
*CAP
1 *195:A1 2.23541e-05
2 *193:A2 5.6944e-05
3 *189:Y 0.000118314
4 *19:12 0.000197612
5 *193:A2 *193:A3 4.49953e-05
6 *193:A2 *195:A2 5.52302e-05
7 *193:A2 *195:B1 0.000188586
8 *195:A1 *193:A3 1.06722e-05
9 *195:A1 *195:C1 1.3701e-05
10 *19:12 *192:A 7.03295e-05
11 *19:12 *193:A3 0.000111233
12 *19:12 *195:B1 0.00010096
13 *19:12 *195:C1 2.44318e-05
14 *19:12 *255:A 5.71472e-05
*RES
1 *189:Y *19:12 22.1214 
2 *19:12 *193:A2 11.4964 
3 *19:12 *195:A1 10.0321 
*END

*D_NET *20 0.000423705
*CONN
*I *206:A I *D sky130_fd_sc_hd__or4b_1
*I *190:Y O *D sky130_fd_sc_hd__inv_2
*CAP
1 *206:A 9.90019e-05
2 *190:Y 9.90019e-05
3 *206:A *206:B 1.00375e-05
4 *206:A *226:A 2.8266e-06
5 *206:A *32:12 0.000128154
6 *206:A *82:28 5.5782e-05
7 *206:A *83:31 2.89016e-05
*RES
1 *190:Y *206:A 30.0821 
*END

*D_NET *21 0.00290527
*CONN
*I *206:B I *D sky130_fd_sc_hd__or4b_1
*I *227:A1 I *D sky130_fd_sc_hd__a211o_1
*I *225:A2 I *D sky130_fd_sc_hd__a31oi_1
*I *191:Y O *D sky130_fd_sc_hd__inv_2
*CAP
1 *206:B 0.000161576
2 *227:A1 0
3 *225:A2 0.000122322
4 *191:Y 1.19212e-05
5 *21:22 0.000482757
6 *21:6 0.000533931
7 *206:B *226:A 0
8 *206:B *238:A 3.27461e-05
9 *206:B *27:12 4.42631e-05
10 *206:B *32:12 2.93215e-05
11 *206:B *83:41 0
12 *225:A2 *227:B1 6.70089e-05
13 *225:A2 *54:8 0.000175519
14 *225:A2 *78:47 4.46186e-06
15 *225:A2 *78:69 1.40849e-05
16 *225:A2 *82:6 5.52238e-05
17 *225:A2 *82:15 5.52302e-05
18 *21:6 *238:A 5.49544e-05
19 *21:6 *27:21 2.23592e-05
20 *21:22 *226:D 0.000142856
21 *21:22 *227:A2 0.00017372
22 *21:22 *227:C1 0.00010096
23 *21:22 *238:A 5.33005e-05
24 *21:22 *238:B 0.000335511
25 *21:22 *238:C 6.28435e-05
26 *21:22 *27:21 5.59965e-05
27 *21:22 *79:79 1.21289e-05
28 *21:22 *83:14 9.02331e-05
29 *206:A *206:B 1.00375e-05
*RES
1 *191:Y *21:6 9.83571 
2 *21:6 *21:22 9.60714 
3 *21:22 *225:A2 21.4964 
4 *21:22 *227:A1 9.3 
5 *21:6 *206:B 21.4607 
*END

*D_NET *22 0.000908066
*CONN
*I *195:B1 I *D sky130_fd_sc_hd__a211oi_1
*I *193:Y O *D sky130_fd_sc_hd__a31oi_1
*CAP
1 *195:B1 5.68722e-05
2 *193:Y 5.68722e-05
3 *195:B1 *192:A 0.000405733
4 *195:B1 *193:A1 9.90431e-05
5 *193:A2 *195:B1 0.000188586
6 *19:12 *195:B1 0.00010096
*RES
1 *193:Y *195:B1 22.4214 
*END

*D_NET *23 0.00449818
*CONN
*I *217:A I *D sky130_fd_sc_hd__or2_1
*I *214:A I *D sky130_fd_sc_hd__and2_1
*I *195:C1 I *D sky130_fd_sc_hd__a211oi_1
*I *194:X O *D sky130_fd_sc_hd__and3_1
*CAP
1 *217:A 0.00041176
2 *214:A 0
3 *195:C1 0.00027139
4 *194:X 0
5 *23:39 0.00103526
6 *23:6 0.000894888
7 *195:C1 *192:A 4.8035e-05
8 *195:C1 *192:B 8.39e-05
9 *195:C1 *193:A3 0.000186662
10 *195:C1 *255:A 0.00010096
11 *195:C1 *77:16 5.63885e-05
12 *195:C1 *84:6 6.05161e-06
13 *195:C1 *84:12 0
14 *217:A *217:B 0.000115851
15 *217:A *219:B1 0.0001912
16 *217:A *41:6 5.52238e-05
17 *217:A *44:8 3.48705e-05
18 *23:39 *192:B 2.49484e-05
19 *23:39 *193:A3 5.33005e-05
20 *23:39 *194:B 3.89509e-05
21 *23:39 *194:C 0.000138952
22 *23:39 *196:B 9.78745e-05
23 *23:39 *196:C 2.51327e-05
24 *23:39 *199:A 5.50313e-05
25 *23:39 *217:B 3.57366e-05
26 *23:39 *256:A 0.000314883
27 *23:39 *24:8 1.00073e-05
28 *23:39 *77:16 3.34295e-05
29 *23:39 *81:36 2.83871e-05
30 P[1] *195:C1 9.90367e-05
31 *195:A1 *195:C1 1.3701e-05
32 *248:A *195:C1 1.19402e-05
33 *19:12 *195:C1 2.44318e-05
*RES
1 *194:X *23:6 13.8 
2 *23:6 *195:C1 21.1214 
3 *23:6 *23:39 18.0179 
4 *23:39 *214:A 9.3 
5 *23:39 *217:A 16.3 
*END

*D_NET *24 0.000948343
*CONN
*I *198:C I *D sky130_fd_sc_hd__and3_1
*I *199:A I *D sky130_fd_sc_hd__xnor2_1
*I *196:X O *D sky130_fd_sc_hd__and3b_1
*CAP
1 *198:C 0.000135585
2 *199:A 5.68017e-05
3 *196:X 4.58886e-05
4 *24:8 0.000238275
5 *198:C *199:B 7.6644e-05
6 *198:C *69:12 9.27545e-05
7 *198:C *69:20 5.33005e-05
8 *198:C *77:59 6.91157e-05
9 *199:A *199:B 5.66157e-05
10 *199:A *77:59 5.83233e-05
11 *23:39 *199:A 5.50313e-05
12 *23:39 *24:8 1.00073e-05
*RES
1 *196:X *24:8 14.3357 
2 *24:8 *199:A 15.4786 
3 *24:8 *198:C 16.2643 
*END

*D_NET *25 0.00261539
*CONN
*I *206:D_N I *D sky130_fd_sc_hd__or4b_1
*I *201:C I *D sky130_fd_sc_hd__and3_1
*I *199:B I *D sky130_fd_sc_hd__xnor2_1
*I *197:Y O *D sky130_fd_sc_hd__nand2_1
*CAP
1 *206:D_N 0.000218458
2 *201:C 6.87039e-05
3 *199:B 0.000191994
4 *197:Y 0.000131659
5 *25:19 0.000407711
6 *25:8 0.000444202
7 *199:B *198:B 3.63281e-05
8 *199:B *77:59 0.000111571
9 *201:C *83:31 2.63605e-07
10 *201:C *83:72 2.15245e-05
11 *206:D_N *207:A 0.000150618
12 *206:D_N *207:B 0.000139202
13 *206:D_N *33:10 7.19508e-05
14 *206:D_N *77:78 6.55528e-06
15 *206:D_N *83:41 0.000150618
16 *25:8 *69:54 0.000182557
17 *25:19 *198:B 2.41972e-05
18 *25:19 *77:59 3.57844e-05
19 *25:19 *77:78 5.81371e-05
20 *25:19 *82:58 3.00989e-05
21 *198:C *199:B 7.6644e-05
22 *199:A *199:B 5.66157e-05
*RES
1 *197:Y *25:8 15.5679 
2 *25:8 *199:B 18.175 
3 *25:8 *25:19 2.55357 
4 *25:19 *201:C 14.6304 
5 *25:19 *206:D_N 19.2821 
*END

*D_NET *26 0.00358609
*CONN
*I *236:A1 I *D sky130_fd_sc_hd__a31o_1
*I *223:A I *D sky130_fd_sc_hd__nand2_1
*I *245:A I *D sky130_fd_sc_hd__or2_1
*I *198:X O *D sky130_fd_sc_hd__and3_1
*CAP
1 *236:A1 0.000290428
2 *223:A 4.10855e-05
3 *245:A 0
4 *198:X 0.00100559
5 *26:19 0.000425626
6 *26:10 0.0010997
7 *223:A *50:8 5.33334e-05
8 *236:A1 *224:B 7.58664e-05
9 *236:A1 *236:A2 0.000128154
10 *236:A1 *236:A3 4.87854e-05
11 *26:10 *246:A 2.42082e-05
12 *26:10 *43:8 0.000340711
13 *26:10 *46:8 0
14 *26:19 *224:B 1.69115e-05
15 *26:19 *236:A3 0
16 *26:19 *246:A 3.56976e-05
17 *26:19 *49:12 0
*RES
1 *198:X *26:10 27.2643 
2 *26:10 *245:A 13.8 
3 *26:10 *26:19 1.94643 
4 *26:19 *223:A 14.7464 
5 *26:19 *236:A1 19.8536 
*END

*D_NET *27 0.00222177
*CONN
*I *209:A I *D sky130_fd_sc_hd__xor2_1
*I *208:A I *D sky130_fd_sc_hd__or2_1
*I *238:C I *D sky130_fd_sc_hd__and3_1
*I *200:Y O *D sky130_fd_sc_hd__nand2_1
*CAP
1 *209:A 0.000200144
2 *208:A 1.89107e-05
3 *238:C 4.3885e-05
4 *200:Y 0.000194835
5 *27:21 0.000563463
6 *27:12 0.000583128
7 *209:A *208:B 5.48009e-05
8 *209:A *209:B 7.85301e-05
9 *27:12 *207:B 6.05161e-06
10 *27:12 *226:A 0
11 *27:12 *33:10 0.00014285
12 *27:12 *82:15 2.44318e-05
13 *27:12 *82:24 5.52238e-05
14 *27:21 *238:A 1.10868e-05
15 *27:21 *35:10 6.90372e-06
16 *27:21 *83:41 5.20669e-05
17 *206:B *27:12 4.42631e-05
18 *21:6 *27:21 2.23592e-05
19 *21:22 *238:C 6.28435e-05
20 *21:22 *27:21 5.59965e-05
*RES
1 *200:Y *27:12 22.2286 
2 *27:12 *238:C 9.90714 
3 *27:12 *27:21 4.23214 
4 *27:21 *208:A 9.72857 
5 *27:21 *209:A 12.2107 
*END

*D_NET *28 0.000313816
*CONN
*I *207:A I *D sky130_fd_sc_hd__xor2_1
*I *201:X O *D sky130_fd_sc_hd__and3_1
*CAP
1 *207:A 8.15991e-05
2 *201:X 8.15991e-05
3 *206:D_N *207:A 0.000150618
*RES
1 *201:X *207:A 29.5464 
*END

*D_NET *29 0.000453425
*CONN
*I *205:A1 I *D sky130_fd_sc_hd__a21o_1
*I *202:Y O *D sky130_fd_sc_hd__nand2_1
*CAP
1 *205:A1 0.000125006
2 *202:Y 0.000125006
3 *205:A1 *205:A2 5.52238e-05
4 *205:A1 *31:10 0.000148189
5 *205:A1 *80:8 0
*RES
1 *202:Y *205:A1 30.0821 
*END

*D_NET *30 0.00218503
*CONN
*I *216:B1 I *D sky130_fd_sc_hd__o211a_1
*I *205:A2 I *D sky130_fd_sc_hd__a21o_1
*I *203:Y O *D sky130_fd_sc_hd__nand3_1
*CAP
1 *216:B1 0.000507949
2 *205:A2 0.000217477
3 *203:Y 0
4 *30:4 0.000725426
5 *205:A2 *32:12 9.71197e-05
6 *205:A2 *78:10 6.5185e-05
7 *205:A2 *79:18 6.74911e-05
8 *205:A2 *80:55 9.31011e-05
9 *216:B1 *215:A2 0.000185643
10 *216:B1 *215:B1 1.92905e-05
11 *216:B1 *216:A1 6.627e-05
12 *216:B1 *216:C1 7.15962e-05
13 *216:B1 *80:66 1.32552e-05
14 *205:A1 *205:A2 5.52238e-05
*RES
1 *203:Y *30:4 9.3 
2 *30:4 *205:A2 23.3714 
3 *30:4 *216:B1 16.6214 
*END

*D_NET *31 0.00129719
*CONN
*I *228:A I *D sky130_fd_sc_hd__nand2_1
*I *229:A I *D sky130_fd_sc_hd__or2_1
*I *205:B1 I *D sky130_fd_sc_hd__a21o_1
*I *204:X O *D sky130_fd_sc_hd__and4_1
*CAP
1 *228:A 4.14935e-05
2 *229:A 1.50644e-05
3 *205:B1 0
4 *204:X 0.000126746
5 *31:21 0.000144087
6 *31:10 0.000214275
7 *228:A *229:B 8.0735e-05
8 *228:A *37:21 0
9 *228:A *78:8 8.46829e-05
10 *229:A *229:B 1.24368e-05
11 *229:A *230:B 1.15172e-05
12 *229:A *78:8 5.52238e-05
13 *31:10 *202:A 0.000144773
14 *31:10 *79:18 3.81e-05
15 *31:10 *80:8 0
16 *31:10 *80:55 0.000101545
17 *31:21 *79:18 7.83174e-05
18 *205:A1 *31:10 0.000148189
*RES
1 *204:X *31:10 17.4071 
2 *31:10 *205:B1 13.8 
3 *31:10 *31:21 6.44643 
4 *31:21 *229:A 9.83571 
5 *31:21 *228:A 10.675 
*END

*D_NET *32 0.002801
*CONN
*I *207:B I *D sky130_fd_sc_hd__xor2_1
*I *206:C I *D sky130_fd_sc_hd__or4b_1
*I *205:X O *D sky130_fd_sc_hd__a21o_1
*CAP
1 *207:B 0.000227419
2 *206:C 0
3 *205:X 0.000525145
4 *32:12 0.000752564
5 *207:B *33:10 5.37879e-05
6 *32:12 *197:B 1.58435e-05
7 *32:12 *210:A 0
8 *32:12 *213:B1 0.00049041
9 *32:12 *69:46 0.000317831
10 *32:12 *82:28 0
11 *32:12 *82:41 1.81469e-05
12 *205:A2 *32:12 9.71197e-05
13 *206:A *32:12 0.000128154
14 *206:B *32:12 2.93215e-05
15 *206:D_N *207:B 0.000139202
16 *27:12 *207:B 6.05161e-06
*RES
1 *205:X *32:12 30.4964 
2 *32:12 *206:C 9.3 
3 *32:12 *207:B 13.1214 
*END

*D_NET *33 0.00299964
*CONN
*I *232:A I *D sky130_fd_sc_hd__and3_1
*I *233:A I *D sky130_fd_sc_hd__nand3_1
*I *234:A1 I *D sky130_fd_sc_hd__a21oi_1
*I *206:X O *D sky130_fd_sc_hd__or4b_1
*CAP
1 *232:A 4.45189e-05
2 *233:A 0.000393162
3 *234:A1 0.000145726
4 *206:X 0.000536124
5 *33:12 0.000538888
6 *33:10 0.000580643
7 *232:A *35:10 8.98585e-05
8 *233:A *241:A1 0
9 *234:A1 *35:10 7.70035e-05
10 *234:A1 *63:10 0
11 *33:10 *34:12 0
12 *33:10 *35:10 0.00020112
13 *33:10 *83:41 0.00012401
14 *206:D_N *33:10 7.19508e-05
15 *207:B *33:10 5.37879e-05
16 *27:12 *33:10 0.00014285
*RES
1 *206:X *33:10 23.0143 
2 *33:10 *33:12 4.5 
3 *33:12 *234:A1 20.2821 
4 *33:12 *233:A 23.3536 
5 *33:10 *232:A 15.1393 
*END

*D_NET *34 0.000641462
*CONN
*I *209:B I *D sky130_fd_sc_hd__xor2_1
*I *208:B I *D sky130_fd_sc_hd__or2_1
*I *207:X O *D sky130_fd_sc_hd__xor2_1
*CAP
1 *209:B 5.11642e-05
2 *208:B 2.35641e-05
3 *207:X 0.000179337
4 *34:12 0.000254065
5 *34:12 *83:41 0
6 *209:A *208:B 5.48009e-05
7 *209:A *209:B 7.85301e-05
8 *33:10 *34:12 0
*RES
1 *207:X *34:12 21.0857 
2 *34:12 *208:B 9.83571 
3 *34:12 *209:B 10.5679 
*END

*D_NET *35 0.00200393
*CONN
*I *232:B I *D sky130_fd_sc_hd__and3_1
*I *233:B I *D sky130_fd_sc_hd__nand3_1
*I *234:A2 I *D sky130_fd_sc_hd__a21oi_1
*I *208:X O *D sky130_fd_sc_hd__or2_1
*CAP
1 *232:B 0.000153973
2 *233:B 8.71444e-05
3 *234:A2 0
4 *208:X 0.000262937
5 *35:12 8.71444e-05
6 *35:10 0.000416911
7 *232:B *60:10 7.6507e-05
8 *232:B *63:10 0
9 *233:B *233:C 0.000118833
10 *233:B *235:A 0.000143652
11 *233:B *57:21 8.16131e-05
12 *233:B *60:10 0.000196634
13 *35:10 *63:10 0
14 *35:10 *83:41 3.69047e-06
15 *232:A *35:10 8.98585e-05
16 *234:A1 *35:10 7.70035e-05
17 *27:21 *35:10 6.90372e-06
18 *33:10 *35:10 0.00020112
*RES
1 *208:X *35:10 18.8179 
2 *35:10 *35:12 4.5 
3 *35:12 *234:A2 9.3 
4 *35:12 *233:B 12.7107 
5 *35:10 *232:B 16.1929 
*END

*D_NET *36 0.00185079
*CONN
*I *242:A1 I *D sky130_fd_sc_hd__a311o_1
*I *220:A I *D sky130_fd_sc_hd__and2_1
*I *221:A I *D sky130_fd_sc_hd__xor2_1
*I *209:X O *D sky130_fd_sc_hd__xor2_1
*CAP
1 *242:A1 0.000201603
2 *220:A 0
3 *221:A 0.000123005
4 *209:X 0.000330963
5 *36:21 0.000280103
6 *36:8 0.000532468
7 *221:A *46:19 0.000138005
8 *242:A1 *236:B1 0
9 *242:A1 *241:A1 6.28356e-05
10 *242:A1 *242:A2 9.90037e-05
11 *242:A1 *46:19 1.76135e-05
12 *36:21 *46:19 6.5185e-05
*RES
1 *209:X *36:8 17.6214 
2 *36:8 *221:A 16.9607 
3 *36:8 *36:21 6.14286 
4 *36:21 *220:A 9.3 
5 *36:21 *242:A1 22.3179 
*END

*D_NET *37 0.00337893
*CONN
*I *229:B I *D sky130_fd_sc_hd__or2_1
*I *228:B I *D sky130_fd_sc_hd__nand2_1
*I *213:B1 I *D sky130_fd_sc_hd__a21oi_1
*I *210:X O *D sky130_fd_sc_hd__and4_1
*CAP
1 *229:B 0.000150176
2 *228:B 0
3 *213:B1 0.000498048
4 *210:X 0
5 *37:21 0.000300469
6 *37:4 0.00064834
7 *213:B1 *197:A 8.02597e-05
8 *213:B1 *210:A 0
9 *213:B1 *211:C_N 2.12005e-05
10 *213:B1 *211:D_N 0.000139637
11 *213:B1 *212:A 0.000142856
12 *213:B1 *212:B 0.000142856
13 *213:B1 *69:46 7.09928e-05
14 *213:B1 *69:54 0.000117876
15 *213:B1 *78:10 3.56976e-05
16 *213:B1 *78:47 2.8266e-06
17 *213:B1 *82:58 0.000309031
18 *229:B *210:D 0
19 *229:B *230:B 5.52302e-05
20 *229:B *78:8 2.07491e-05
21 *37:21 *210:D 5.7661e-06
22 *37:21 *78:8 5.33334e-05
23 *228:A *229:B 8.0735e-05
24 *228:A *37:21 0
25 *229:A *229:B 1.24368e-05
26 *32:12 *213:B1 0.00049041
*RES
1 *210:X *37:4 9.3 
2 *37:4 *213:B1 30.8536 
3 *37:4 *37:21 2.91071 
4 *37:21 *228:B 9.3 
5 *37:21 *229:B 13.0679 
*END

*D_NET *38 0.000342868
*CONN
*I *213:A1 I *D sky130_fd_sc_hd__a21oi_1
*I *211:X O *D sky130_fd_sc_hd__or4bb_1
*CAP
1 *213:A1 6.10068e-05
2 *211:X 6.10068e-05
3 *213:A1 *212:A 8.41579e-05
4 *213:A1 *213:A2 3.57366e-05
5 *213:A1 *40:12 0.00010096
*RES
1 *211:X *213:A1 20.6893 
*END

*D_NET *39 0.000220164
*CONN
*I *213:A2 I *D sky130_fd_sc_hd__a21oi_1
*I *212:Y O *D sky130_fd_sc_hd__nand2_1
*CAP
1 *213:A2 3.16699e-05
2 *212:Y 3.16699e-05
3 *213:A2 *212:A 4.22908e-05
4 *213:A2 *212:B 2.54632e-05
5 *213:A2 *40:12 5.33334e-05
6 *213:A1 *213:A2 3.57366e-05
*RES
1 *212:Y *213:A2 19.975 
*END

*D_NET *40 0.00192214
*CONN
*I *214:B I *D sky130_fd_sc_hd__and2_1
*I *217:B I *D sky130_fd_sc_hd__or2_1
*I *213:Y O *D sky130_fd_sc_hd__a21oi_1
*CAP
1 *214:B 0
2 *217:B 0.000167869
3 *213:Y 0.000434027
4 *40:12 0.000601896
5 *217:B *219:B1 9.10654e-05
6 *217:B *41:6 2.89016e-05
7 *217:B *44:8 0.000271352
8 *40:12 *212:A 9.22103e-06
9 *40:12 *218:A_N 1.19309e-05
10 *40:12 *219:A1 0
11 *40:12 *222:A 0
12 *40:12 *69:12 0
13 *213:A1 *40:12 0.00010096
14 *213:A2 *40:12 5.33334e-05
15 *217:A *217:B 0.000115851
16 *23:39 *217:B 3.57366e-05
*RES
1 *213:Y *40:12 24.55 
2 *40:12 *217:B 14.3893 
3 *40:12 *214:B 9.3 
*END

*D_NET *41 0.00104263
*CONN
*I *219:B1 I *D sky130_fd_sc_hd__a21o_1
*I *218:A_N I *D sky130_fd_sc_hd__nand2b_1
*I *214:X O *D sky130_fd_sc_hd__and2_1
*CAP
1 *219:B1 6.666e-05
2 *218:A_N 0.000161209
3 *214:X 1.40568e-05
4 *41:6 0.000241925
5 *218:A_N *218:B 0.000121294
6 *218:A_N *219:A1 1.17968e-05
7 *218:A_N *219:A2 4.73656e-05
8 *218:A_N *256:A 0
9 *218:A_N *69:12 0
10 *217:A *219:B1 0.0001912
11 *217:A *41:6 5.52238e-05
12 *217:B *219:B1 9.10654e-05
13 *217:B *41:6 2.89016e-05
14 *40:12 *218:A_N 1.19309e-05
*RES
1 *214:X *41:6 9.83571 
2 *41:6 *218:A_N 21.9964 
3 *41:6 *219:B1 11.4964 
*END

*D_NET *42 0.000329228
*CONN
*I *216:C1 I *D sky130_fd_sc_hd__o211a_1
*I *215:X O *D sky130_fd_sc_hd__a21o_1
*CAP
1 *216:C1 3.54817e-05
2 *215:X 3.54817e-05
3 *216:C1 *216:A1 0.000186669
4 *216:B1 *216:C1 7.15962e-05
*RES
1 *215:X *216:C1 20.3679 
*END

*D_NET *43 0.00229182
*CONN
*I *222:A I *D sky130_fd_sc_hd__xnor2_1
*I *219:A1 I *D sky130_fd_sc_hd__a21o_1
*I *216:X O *D sky130_fd_sc_hd__o211a_1
*CAP
1 *222:A 0.000175242
2 *219:A1 0.000100709
3 *216:X 0.000360931
4 *43:8 0.000636882
5 *219:A1 *219:A2 1.02504e-05
6 *219:A1 *222:B 0.000197977
7 *222:A *222:B 0.000175519
8 *222:A *46:8 0
9 *43:8 *69:12 0.000193132
10 *43:8 *69:20 8.86656e-05
11 *218:A_N *219:A1 1.17968e-05
12 *26:10 *43:8 0.000340711
13 *40:12 *219:A1 0
14 *40:12 *222:A 0
*RES
1 *216:X *43:8 22.9607 
2 *43:8 *219:A1 16.3536 
3 *43:8 *222:A 17.3 
*END

*D_NET *44 0.00133415
*CONN
*I *219:A2 I *D sky130_fd_sc_hd__a21o_1
*I *218:B I *D sky130_fd_sc_hd__nand2b_1
*I *217:X O *D sky130_fd_sc_hd__or2_1
*CAP
1 *219:A2 1.93419e-05
2 *218:B 0.000132187
3 *217:X 0.000220724
4 *44:8 0.000372253
5 *218:B *222:B 8.18686e-05
6 *219:A2 *222:B 2.26424e-05
7 *217:A *44:8 3.48705e-05
8 *217:B *44:8 0.000271352
9 *218:A_N *218:B 0.000121294
10 *218:A_N *219:A2 4.73656e-05
11 *219:A1 *219:A2 1.02504e-05
*RES
1 *217:X *44:8 18.0321 
2 *44:8 *218:B 16.8402 
3 *44:8 *219:A2 14.5321 
*END

*D_NET *45 0.00108609
*CONN
*I *222:B I *D sky130_fd_sc_hd__xnor2_1
*I *218:Y O *D sky130_fd_sc_hd__nand2b_1
*CAP
1 *222:B 0.000245772
2 *218:Y 0.000245772
3 *222:B *46:8 0.000116535
4 *218:B *222:B 8.18686e-05
5 *219:A1 *222:B 0.000197977
6 *219:A2 *222:B 2.26424e-05
7 *222:A *222:B 0.000175519
*RES
1 *218:Y *222:B 34.1 
*END

*D_NET *46 0.00217224
*CONN
*I *242:A2 I *D sky130_fd_sc_hd__a311o_1
*I *220:B I *D sky130_fd_sc_hd__and2_1
*I *221:B I *D sky130_fd_sc_hd__xor2_1
*I *219:X O *D sky130_fd_sc_hd__a21o_1
*CAP
1 *242:A2 0.000142095
2 *220:B 0
3 *221:B 3.72884e-05
4 *219:X 0.000455597
5 *46:19 0.000375062
6 *46:8 0.000725852
7 *242:A2 *241:A1 0
8 *46:8 *236:A3 0
9 *46:8 *49:12 0
10 *46:19 *236:A3 0
11 *46:19 *236:B1 0
12 *221:A *46:19 0.000138005
13 *222:A *46:8 0
14 *222:B *46:8 0.000116535
15 *242:A1 *242:A2 9.90037e-05
16 *242:A1 *46:19 1.76135e-05
17 *26:10 *46:8 0
18 *36:21 *46:19 6.5185e-05
*RES
1 *219:X *46:8 22.7286 
2 *46:8 *221:B 14.3357 
3 *46:8 *46:19 5.28571 
4 *46:19 *220:B 13.8 
5 *46:19 *242:A2 16.4071 
*END

*D_NET *47 0.00164416
*CONN
*I *236:B1 I *D sky130_fd_sc_hd__a31o_1
*I *241:A1 I *D sky130_fd_sc_hd__o211a_1
*I *220:X O *D sky130_fd_sc_hd__and2_1
*CAP
1 *236:B1 0.000339735
2 *241:A1 0.00041371
3 *220:X 0
4 *47:4 0.000753445
5 *236:B1 *236:A2 5.80706e-06
6 *236:B1 *236:A3 3.34295e-05
7 *236:B1 *237:A 0
8 *236:B1 *237:B 0
9 *241:A1 *241:A2 1.02504e-05
10 *241:A1 *242:C1 2.49484e-05
11 *233:A *241:A1 0
12 *242:A1 *236:B1 0
13 *242:A1 *241:A1 6.28356e-05
14 *242:A2 *241:A1 0
15 *46:19 *236:B1 0
*RES
1 *220:X *47:4 9.3 
2 *47:4 *241:A1 23.7643 
3 *47:4 *236:B1 23.5321 
*END

*D_NET *48 0.000813335
*CONN
*I *224:A I *D sky130_fd_sc_hd__xnor2_1
*I *236:A2 I *D sky130_fd_sc_hd__a31o_1
*I *221:X O *D sky130_fd_sc_hd__xor2_1
*CAP
1 *224:A 3.37899e-05
2 *236:A2 9.42111e-05
3 *221:X 0.000184742
4 *48:8 0.000312743
5 *236:A2 *236:A3 5.38886e-05
6 *236:A2 *258:A 0
7 *236:A1 *236:A2 0.000128154
8 *236:B1 *236:A2 5.80706e-06
*RES
1 *221:X *48:8 12.3179 
2 *48:8 *236:A2 20.675 
3 *48:8 *224:A 9.83571 
*END

*D_NET *49 0.00152872
*CONN
*I *245:B I *D sky130_fd_sc_hd__or2_1
*I *236:A3 I *D sky130_fd_sc_hd__a31o_1
*I *223:B I *D sky130_fd_sc_hd__nand2_1
*I *222:Y O *D sky130_fd_sc_hd__xnor2_1
*CAP
1 *245:B 5.87236e-05
2 *236:A3 0.000367755
3 *223:B 0
4 *222:Y 0.000137616
5 *49:12 0.000499968
6 *49:8 0.000328553
7 *236:A1 *236:A3 4.87854e-05
8 *236:A2 *236:A3 5.38886e-05
9 *236:B1 *236:A3 3.34295e-05
10 *26:19 *236:A3 0
11 *26:19 *49:12 0
12 *46:8 *236:A3 0
13 *46:8 *49:12 0
14 *46:19 *236:A3 0
*RES
1 *222:Y *49:8 11.0857 
2 *49:8 *49:12 6.44643 
3 *49:12 *223:B 13.8 
4 *49:12 *236:A3 20.8536 
5 *49:8 *245:B 10.2464 
*END

*D_NET *50 0.00115035
*CONN
*I *224:B I *D sky130_fd_sc_hd__xnor2_1
*I *246:A I *D sky130_fd_sc_hd__and2_1
*I *223:Y O *D sky130_fd_sc_hd__nand2_1
*CAP
1 *224:B 0.000197905
2 *246:A 9.21974e-05
3 *223:Y 0.000182067
4 *50:8 0.000472169
5 *224:B *257:A 0
6 *246:A *257:A 0
7 P[4] *224:B 0
8 *223:A *50:8 5.33334e-05
9 *236:A1 *224:B 7.58664e-05
10 *26:10 *246:A 2.42082e-05
11 *26:19 *224:B 1.69115e-05
12 *26:19 *246:A 3.56976e-05
*RES
1 *223:Y *50:8 15.9786 
2 *50:8 *246:A 15.7464 
3 *50:8 *224:B 17.9071 
*END

*D_NET *51 0.000480128
*CONN
*I *227:B1 I *D sky130_fd_sc_hd__a211o_1
*I *225:Y O *D sky130_fd_sc_hd__a31oi_1
*CAP
1 *227:B1 0.00014263
2 *225:Y 0.00014263
3 *227:B1 *200:B 6.05161e-06
4 *227:B1 *225:B1 2.89016e-05
5 *227:B1 *227:C1 4.1331e-06
6 *227:B1 *78:69 7.6644e-05
7 *227:B1 *82:15 1.21289e-05
8 *227:B1 *83:14 0
9 *225:A2 *227:B1 6.70089e-05
*RES
1 *225:Y *227:B1 30.1893 
*END

*D_NET *52 0.0012897
*CONN
*I *244:C1 I *D sky130_fd_sc_hd__a211o_1
*I *227:C1 I *D sky130_fd_sc_hd__a211o_1
*I *226:X O *D sky130_fd_sc_hd__and4_1
*CAP
1 *244:C1 0.000369422
2 *227:C1 7.87696e-05
3 *226:X 3.92359e-05
4 *52:8 0.000487427
5 *227:C1 *54:8 0
6 *227:C1 *83:14 0.000101863
7 *244:C1 *239:B1 6.92148e-06
8 *244:C1 *54:8 0
9 *244:C1 *63:10 0
10 *244:C1 *64:12 4.57445e-05
11 *52:8 *79:79 5.52238e-05
12 P[7] *244:C1 0
13 *227:B1 *227:C1 4.1331e-06
14 *21:22 *227:C1 0.00010096
*RES
1 *226:X *52:8 14.3357 
2 *52:8 *227:C1 15.7821 
3 *52:8 *244:C1 20.6036 
*END

*D_NET *53 0.00119522
*CONN
*I *239:A1 I *D sky130_fd_sc_hd__o21ai_1
*I *231:A I *D sky130_fd_sc_hd__xnor2_1
*I *227:X O *D sky130_fd_sc_hd__a211o_1
*CAP
1 *239:A1 0.000100669
2 *231:A 0
3 *227:X 0.000260395
4 *53:12 0.000361064
5 *239:A1 *231:B 9.90367e-05
6 *239:A1 *239:A2 8.36572e-05
7 *239:A1 *57:10 2.89114e-05
8 *53:12 *230:B 1.31516e-05
9 *53:12 *239:B1 0
10 *53:12 *56:10 4.57445e-05
11 *53:12 *79:10 0.000126439
12 *53:12 *79:79 5.33005e-05
13 *53:12 *83:14 2.28499e-05
*RES
1 *227:X *53:12 23.3179 
2 *53:12 *231:A 9.3 
3 *53:12 *239:A1 11.4786 
*END

*D_NET *54 0.00172794
*CONN
*I *239:B1 I *D sky130_fd_sc_hd__o21ai_1
*I *230:A I *D sky130_fd_sc_hd__nand2_1
*I *228:Y O *D sky130_fd_sc_hd__nand2_1
*CAP
1 *239:B1 0.000245176
2 *230:A 0
3 *228:Y 0.000272507
4 *54:8 0.000517683
5 *239:B1 *56:10 0.000150618
6 *239:B1 *57:10 3.18676e-05
7 *54:8 *230:B 0.000277866
8 *54:8 *78:47 4.97825e-05
9 *225:A2 *54:8 0.000175519
10 *227:C1 *54:8 0
11 *244:C1 *239:B1 6.92148e-06
12 *244:C1 *54:8 0
13 *53:12 *239:B1 0
*RES
1 *228:Y *54:8 20.6036 
2 *54:8 *230:A 13.8 
3 *54:8 *239:B1 18.675 
*END

*D_NET *55 0.00154314
*CONN
*I *230:B I *D sky130_fd_sc_hd__nand2_1
*I *229:X O *D sky130_fd_sc_hd__or2_1
*CAP
1 *230:B 0.000326791
2 *229:X 0.000326791
3 *230:B *78:8 1.03968e-05
4 *230:B *79:10 0.000148903
5 *230:B *79:12 0.000223592
6 *230:B *79:18 0.000148903
7 *229:A *230:B 1.15172e-05
8 *229:B *230:B 5.52302e-05
9 *53:12 *230:B 1.31516e-05
10 *54:8 *230:B 0.000277866
*RES
1 *229:X *230:B 36.1714 
*END

*D_NET *56 0.000729229
*CONN
*I *239:A2 I *D sky130_fd_sc_hd__o21ai_1
*I *231:B I *D sky130_fd_sc_hd__xnor2_1
*I *230:Y O *D sky130_fd_sc_hd__nand2_1
*CAP
1 *239:A2 6.37171e-05
2 *231:B 4.05809e-05
3 *230:Y 6.20707e-05
4 *56:10 0.000166369
5 *239:A2 *57:10 1.74352e-05
6 *239:A1 *231:B 9.90367e-05
7 *239:A1 *239:A2 8.36572e-05
8 *239:B1 *56:10 0.000150618
9 *53:12 *56:10 4.57445e-05
*RES
1 *230:Y *56:10 20.2464 
2 *56:10 *231:B 10.2464 
3 *56:10 *239:A2 10.6571 
*END

*D_NET *57 0.00208814
*CONN
*I *233:C I *D sky130_fd_sc_hd__nand3_1
*I *232:C I *D sky130_fd_sc_hd__and3_1
*I *234:B1 I *D sky130_fd_sc_hd__a21oi_1
*I *231:Y O *D sky130_fd_sc_hd__xnor2_1
*CAP
1 *233:C 8.35358e-05
2 *232:C 0
3 *234:B1 0
4 *231:Y 0.000588524
5 *57:21 0.000290636
6 *57:10 0.000795624
7 *233:C *59:10 0
8 *57:21 *60:10 5.11597e-05
9 *233:B *233:C 0.000118833
10 *233:B *57:21 8.16131e-05
11 *239:A1 *57:10 2.89114e-05
12 *239:A2 *57:10 1.74352e-05
13 *239:B1 *57:10 3.18676e-05
*RES
1 *231:Y *57:10 18.1929 
2 *57:10 *234:B1 9.3 
3 *57:10 *57:21 3.21429 
4 *57:21 *232:C 9.3 
5 *57:21 *233:C 11.1393 
*END
