*SPEF "ieee 1481-1999"
*DESIGN "SARSANPASOS_VENTAJA_RUIDO_e8"
*DATE "18:03:07 Tuesday September 16, 2025"
*VENDOR "The OpenROAD Project"
*PROGRAM "OpenROAD"
*VERSION "edf00dff99f6c40d67a30c0e22a8191c5d2ed9d6"
*DESIGN_FLOW "NAME_SCOPE LOCAL" "PIN_CAP NONE"
*DIVIDER /
*DELIMITER :
*BUS_DELIMITER []
*T_UNIT 1 NS
*C_UNIT 1 PF
*R_UNIT 1 OHM
*L_UNIT 1 HENRY

*NAME_MAP
*1 A[0]
*2 A[1]
*3 B[0]
*4 B[1]
*5 P[0]
*6 P[1]
*7 P[2]
*8 P[3]
*11 _0_
*12 net1
*13 net2
*14 net3
*15 net4
*16 net5
*17 net6
*18 net7
*19 net8
*20 FILLER_0_15
*21 FILLER_0_27
*22 FILLER_0_29
*23 FILLER_0_3
*24 FILLER_0_41
*25 FILLER_0_53
*26 FILLER_0_57
*27 FILLER_0_69
*28 FILLER_1_15
*29 FILLER_1_27
*30 FILLER_1_3
*31 FILLER_1_39
*32 FILLER_1_51
*33 FILLER_1_55
*34 FILLER_1_57
*35 FILLER_1_69
*36 FILLER_2_18
*37 FILLER_2_26
*38 FILLER_2_29
*39 FILLER_2_41
*40 FILLER_2_53
*41 FILLER_2_6
*42 FILLER_2_65
*43 FILLER_2_77
*44 FILLER_3_15
*45 FILLER_3_27
*46 FILLER_3_3
*47 FILLER_3_39
*48 FILLER_3_51
*49 FILLER_3_55
*50 FILLER_3_57
*51 FILLER_3_69
*52 FILLER_4_19
*53 FILLER_4_27
*54 FILLER_4_29
*55 FILLER_4_41
*56 FILLER_4_53
*57 FILLER_4_65
*58 FILLER_4_7
*59 FILLER_4_77
*60 FILLER_5_10
*61 FILLER_5_18
*62 FILLER_5_22
*63 FILLER_5_35
*64 FILLER_5_47
*65 FILLER_5_55
*66 FILLER_5_57
*67 FILLER_5_6
*68 FILLER_5_69
*69 FILLER_6_18
*70 FILLER_6_24
*71 FILLER_6_29
*72 FILLER_6_41
*73 FILLER_6_53
*74 FILLER_6_6
*75 FILLER_6_65
*76 FILLER_7_16
*77 FILLER_7_28
*78 FILLER_7_40
*79 FILLER_7_52
*80 FILLER_7_57
*81 FILLER_7_69
*82 FILLER_7_7
*83 FILLER_8_15
*84 FILLER_8_27
*85 FILLER_8_29
*86 FILLER_8_3
*87 FILLER_8_41
*88 FILLER_8_53
*89 FILLER_8_65
*90 FILLER_8_77
*91 FILLER_9_18
*92 FILLER_9_26
*93 FILLER_9_29
*94 FILLER_9_41
*95 FILLER_9_53
*96 FILLER_9_57
*97 FILLER_9_6
*98 FILLER_9_69
*99 PHY_EDGE_ROW_0_Left_10
*100 PHY_EDGE_ROW_0_Right_0
*101 PHY_EDGE_ROW_1_Left_11
*102 PHY_EDGE_ROW_1_Right_1
*103 PHY_EDGE_ROW_2_Left_12
*104 PHY_EDGE_ROW_2_Right_2
*105 PHY_EDGE_ROW_3_Left_13
*106 PHY_EDGE_ROW_3_Right_3
*107 PHY_EDGE_ROW_4_Left_14
*108 PHY_EDGE_ROW_4_Right_4
*109 PHY_EDGE_ROW_5_Left_15
*110 PHY_EDGE_ROW_5_Right_5
*111 PHY_EDGE_ROW_6_Left_16
*112 PHY_EDGE_ROW_6_Right_6
*113 PHY_EDGE_ROW_7_Left_17
*114 PHY_EDGE_ROW_7_Right_7
*115 PHY_EDGE_ROW_8_Left_18
*116 PHY_EDGE_ROW_8_Right_8
*117 PHY_EDGE_ROW_9_Left_19
*118 PHY_EDGE_ROW_9_Right_9
*119 TAP_TAPCELL_ROW_0_20
*120 TAP_TAPCELL_ROW_0_21
*121 TAP_TAPCELL_ROW_1_22
*122 TAP_TAPCELL_ROW_2_23
*123 TAP_TAPCELL_ROW_3_24
*124 TAP_TAPCELL_ROW_4_25
*125 TAP_TAPCELL_ROW_5_26
*126 TAP_TAPCELL_ROW_6_27
*127 TAP_TAPCELL_ROW_7_28
*128 TAP_TAPCELL_ROW_8_29
*129 TAP_TAPCELL_ROW_9_30
*130 TAP_TAPCELL_ROW_9_31
*131 _1_
*132 _2_
*133 _3_
*134 _4_
*135 _5_
*136 input1
*137 input2
*138 input3
*139 input4
*140 output5
*141 output6
*142 output7
*143 output8

*PORTS
A[0] I
A[1] I
B[0] I
B[1] I
P[0] O
P[1] O
P[2] O
P[3] O

*D_NET *1 0.000633166
*CONN
*P A[0] I
*I *136:A I *D sky130_fd_sc_hd__buf_1
*CAP
1 A[0] 0.000305338
2 *136:A 0.000305338
3 *136:A P[0] 2.24901e-05
4 *136:A *137:A 0
*RES
1 A[0] *136:A 6.63177 
*END

*D_NET *2 0.000503623
*CONN
*P A[1] I
*I *137:A I *D sky130_fd_sc_hd__clkbuf_1
*CAP
1 A[1] 0.000221853
2 *137:A 0.000221853
3 *137:A P[0] 3.14094e-05
4 *137:A *138:A 2.85068e-05
5 *136:A *137:A 0
*RES
1 A[1] *137:A 5.35677 
*END

*D_NET *3 0.000623243
*CONN
*P B[0] I
*I *138:A I *D sky130_fd_sc_hd__buf_1
*CAP
1 B[0] 0.00028255
2 *138:A 0.00028255
3 *138:A P[3] 2.96366e-05
4 *138:A *143:A 0
5 *137:A *138:A 2.85068e-05
*RES
1 B[0] *138:A 7.5993 
*END

*D_NET *4 0.000572527
*CONN
*P B[1] I
*I *139:A I *D sky130_fd_sc_hd__clkbuf_1
*CAP
1 B[1] 0.000272764
2 *139:A 0.000272764
3 *139:A P[3] 2.69997e-05
*RES
1 B[1] *139:A 7.0893 
*END

*D_NET *5 0.000660243
*CONN
*P P[0] O
*I *140:X O *D sky130_fd_sc_hd__buf_2
*CAP
1 P[0] 0.000303172
2 *140:X 0.000303172
3 *136:A P[0] 2.24901e-05
4 *137:A P[0] 3.14094e-05
*RES
1 *140:X P[0] 7.1793 
*END

*D_NET *6 0.000463483
*CONN
*P P[1] O
*I *141:X O *D sky130_fd_sc_hd__buf_2
*CAP
1 P[1] 0.000179612
2 *141:X 0.000179612
3 P[1] P[2] 9.25475e-05
4 P[1] *141:A 1.17114e-05
*RES
1 *141:X P[1] 4.90503 
*END

*D_NET *7 0.000527701
*CONN
*P P[2] O
*I *142:X O *D sky130_fd_sc_hd__buf_2
*CAP
1 P[2] 0.000217577
2 *142:X 0.000217577
3 P[1] P[2] 9.25475e-05
*RES
1 *142:X P[2] 5.41503 
*END

*D_NET *8 0.000719351
*CONN
*P P[3] O
*I *143:X O *D sky130_fd_sc_hd__buf_2
*CAP
1 P[3] 0.000331357
2 *143:X 0.000331357
3 *138:A P[3] 2.96366e-05
4 *139:A P[3] 2.69997e-05
*RES
1 *143:X P[3] 7.6893 
*END

*D_NET *11 0.000992352
*CONN
*I *134:C I *D sky130_fd_sc_hd__and3_1
*I *131:Y O *D sky130_fd_sc_hd__nand2_1
*CAP
1 *134:C 0.000317492
2 *131:Y 0.000317492
3 *134:C *134:A 0.00012657
4 *134:C *141:A 2.76187e-05
5 *134:C *12:12 0
6 *134:C *15:27 0.000203178
*RES
1 *131:Y *134:C 11.685 
*END

*D_NET *12 0.00345986
*CONN
*I *131:B I *D sky130_fd_sc_hd__nand2_1
*I *132:D I *D sky130_fd_sc_hd__and4_1
*I *133:B I *D sky130_fd_sc_hd__and3b_1
*I *136:X O *D sky130_fd_sc_hd__buf_1
*CAP
1 *131:B 0.000120207
2 *132:D 6.02765e-05
3 *133:B 0.000289367
4 *136:X 0.000718324
5 *12:12 0.00045194
6 *12:10 0.000940828
7 *131:B *131:A 0.0001249
8 *132:D *133:A_N 2.30292e-05
9 *132:D *134:B 0.00015896
10 *132:D *14:6 8.57024e-05
11 *132:D *15:27 4.66108e-05
12 *133:B *133:A_N 0.00011964
13 *133:B *134:B 6.47326e-05
14 *133:B *15:10 3.25831e-05
15 *133:B *15:27 7.23533e-05
16 *12:10 *135:A 7.5431e-05
17 *12:12 *135:A 1.22762e-05
18 *12:12 *14:10 4.19797e-05
19 *12:12 *15:27 2.07184e-05
20 *134:C *12:12 0
*RES
1 *136:X *12:10 13.65 
2 *12:10 *12:12 1.89 
3 *12:12 *133:B 7.935 
4 *12:12 *132:D 5.43 
5 *12:10 *131:B 5.79 
*END

*D_NET *13 0.00238472
*CONN
*I *134:B I *D sky130_fd_sc_hd__and3_1
*I *132:C I *D sky130_fd_sc_hd__and4_1
*I *137:X O *D sky130_fd_sc_hd__clkbuf_1
*CAP
1 *134:B 0.000245579
2 *132:C 0
3 *137:X 0.000371185
4 *13:12 0.000616764
5 *134:B *133:A_N 0.000351262
6 *134:B *134:A 4.75767e-05
7 *134:B *141:A 0.000126054
8 *134:B *15:27 0.000317499
9 *13:12 *14:10 7.06865e-05
10 *13:12 *15:27 1.44259e-05
11 *132:D *134:B 0.00015896
12 *133:B *134:B 6.47326e-05
*RES
1 *137:X *13:12 10.19 
2 *13:12 *132:C 1.6 
3 *13:12 *134:B 8.89 
*END

*D_NET *14 0.00165223
*CONN
*I *132:B I *D sky130_fd_sc_hd__and4_1
*I *135:A I *D sky130_fd_sc_hd__clkbuf_1
*I *131:A I *D sky130_fd_sc_hd__nand2_1
*I *138:X O *D sky130_fd_sc_hd__buf_1
*CAP
1 *132:B 0
2 *135:A 0.000106907
3 *131:A 0.000125168
4 *138:X 0.000273589
5 *14:10 0.000287075
6 *14:6 0.00032859
7 *14:6 *133:A_N 3.23663e-05
8 *14:6 *143:A 8.31173e-05
9 *14:10 *15:27 4.43871e-06
10 *131:B *131:A 0.0001249
11 *132:D *14:6 8.57024e-05
12 *12:10 *135:A 7.5431e-05
13 *12:12 *135:A 1.22762e-05
14 *12:12 *14:10 4.19797e-05
15 *13:12 *14:10 7.06865e-05
*RES
1 *138:X *14:6 5.155 
2 *14:6 *14:10 3.38 
3 *14:10 *131:A 5.775 
4 *14:10 *135:A 6 
5 *14:6 *132:B 1.6 
*END

*D_NET *15 0.002753
*CONN
*I *134:A I *D sky130_fd_sc_hd__and3_1
*I *133:C I *D sky130_fd_sc_hd__and3b_1
*I *132:A I *D sky130_fd_sc_hd__and4_1
*I *139:X O *D sky130_fd_sc_hd__clkbuf_1
*CAP
1 *134:A 1.75648e-05
2 *133:C 0
3 *132:A 0
4 *139:X 0.000696677
5 *15:27 0.000226293
6 *15:10 0.000905405
7 *134:A *141:A 2.11084e-05
8 *132:D *15:27 4.66108e-05
9 *133:B *15:10 3.25831e-05
10 *133:B *15:27 7.23533e-05
11 *134:B *134:A 4.75767e-05
12 *134:B *15:27 0.000317499
13 *134:C *134:A 0.00012657
14 *134:C *15:27 0.000203178
15 *12:12 *15:27 2.07184e-05
16 *13:12 *15:27 1.44259e-05
17 *14:10 *15:27 4.43871e-06
*RES
1 *139:X *15:10 13.05 
2 *15:10 *132:A 3.6 
3 *15:10 *15:27 7.145 
4 *15:27 *133:C 1.6 
5 *15:27 *134:A 2.74 
*END

*D_NET *16 0.000405455
*CONN
*I *140:A I *D sky130_fd_sc_hd__buf_2
*I *135:X O *D sky130_fd_sc_hd__clkbuf_1
*CAP
1 *140:A 0.000202728
2 *135:X 0.000202728
*RES
1 *135:X *140:A 6.335 
*END

*D_NET *17 0.00295993
*CONN
*I *141:A I *D sky130_fd_sc_hd__buf_2
*I *133:X O *D sky130_fd_sc_hd__and3b_1
*CAP
1 *141:A 0.0010355
2 *133:X 0.0010355
3 *141:A *142:A 0.000702433
4 P[1] *141:A 1.17114e-05
5 *134:A *141:A 2.11084e-05
6 *134:B *141:A 0.000126054
7 *134:C *141:A 2.76187e-05
*RES
1 *133:X *141:A 26.265 
*END

*D_NET *18 0.00271963
*CONN
*I *142:A I *D sky130_fd_sc_hd__buf_2
*I *134:X O *D sky130_fd_sc_hd__and3_1
*CAP
1 *142:A 0.0010086
2 *134:X 0.0010086
3 *141:A *142:A 0.000702433
*RES
1 *134:X *142:A 18.86 
*END

*D_NET *19 0.00132624
*CONN
*I *133:A_N I *D sky130_fd_sc_hd__and3b_1
*I *143:A I *D sky130_fd_sc_hd__buf_2
*I *132:X O *D sky130_fd_sc_hd__and4_1
*CAP
1 *133:A_N 0.000139539
2 *143:A 0.000218874
3 *132:X 0
4 *19:4 0.000358413
5 *132:D *133:A_N 2.30292e-05
6 *133:B *133:A_N 0.00011964
7 *134:B *133:A_N 0.000351262
8 *138:A *143:A 0
9 *14:6 *133:A_N 3.23663e-05
10 *14:6 *143:A 8.31173e-05
*RES
1 *132:X *19:4 1.6 
2 *19:4 *143:A 9.575 
3 *19:4 *133:A_N 5.845 
*END
