*SPEF "ieee 1481-1999"
*DESIGN "mult4_SarsaNStepsRuido_e9_SARSA_RUIDO_e9_SARSA_RUIDO_e9_SARSA_RUIDO_e9"
*DATE "14:33:08 Tuesday September 16, 2025"
*VENDOR "The OpenROAD Project"
*PROGRAM "OpenROAD"
*VERSION "edf00dff99f6c40d67a30c0e22a8191c5d2ed9d6"
*DESIGN_FLOW "NAME_SCOPE LOCAL" "PIN_CAP NONE"
*DIVIDER /
*DELIMITER :
*BUS_DELIMITER []
*T_UNIT 1 NS
*C_UNIT 1 PF
*R_UNIT 1 OHM
*L_UNIT 1 HENRY

*NAME_MAP
*1 A[0]
*2 A[1]
*3 A[2]
*4 A[3]
*5 B[0]
*6 B[1]
*7 B[2]
*8 B[3]
*9 net16
*10 P[1]
*11 P[2]
*12 P[3]
*13 P[4]
*14 P[5]
*15 P[6]
*16 P[7]
*19 _00_
*20 _01_
*21 _02_
*22 _03_
*23 _04_
*24 _05_
*25 _06_
*26 _07_
*27 _08_
*28 _09_
*29 _10_
*30 _11_
*31 _12_
*32 _13_
*33 _14_
*34 _15_
*35 _16_
*36 _17_
*37 _18_
*38 _19_
*39 _20_
*40 _21_
*41 _22_
*42 _23_
*43 _24_
*44 _25_
*45 _26_
*46 _27_
*47 _28_
*48 _29_
*49 _30_
*50 _31_
*51 _32_
*52 _33_
*53 _34_
*54 _35_
*55 _36_
*56 net1
*57 net10
*58 net11
*59 net12
*60 net13
*61 net14
*62 net15
*63 net2
*64 net3
*65 net4
*66 net5
*67 net6
*68 net7
*69 net8
*70 net9
*71 FILLER_0_15
*72 FILLER_0_21
*73 FILLER_0_27
*74 FILLER_0_29
*75 FILLER_0_3
*76 FILLER_0_61
*77 FILLER_0_73
*78 FILLER_1_15
*79 FILLER_1_3
*80 FILLER_1_57
*81 FILLER_1_66
*82 FILLER_2_11
*83 FILLER_2_25
*84 FILLER_2_3
*85 FILLER_2_49
*86 FILLER_2_58
*87 FILLER_2_65
*88 FILLER_2_70
*89 FILLER_2_76
*90 FILLER_3_3
*91 FILLER_3_33
*92 FILLER_3_45
*93 FILLER_3_53
*94 FILLER_3_57
*95 FILLER_3_69
*96 FILLER_4_18
*97 FILLER_4_26
*98 FILLER_4_29
*99 FILLER_4_33
*100 FILLER_4_37
*101 FILLER_4_46
*102 FILLER_4_6
*103 FILLER_4_65
*104 FILLER_4_77
*105 FILLER_5_11
*106 FILLER_5_20
*107 FILLER_5_32
*108 FILLER_5_44
*109 FILLER_5_57
*110 FILLER_5_7
*111 FILLER_5_70
*112 FILLER_5_78
*113 FILLER_6_21
*114 FILLER_6_27
*115 FILLER_6_29
*116 FILLER_6_41
*117 FILLER_6_46
*118 FILLER_6_55
*119 FILLER_6_7
*120 FILLER_6_70
*121 FILLER_6_76
*122 FILLER_7_26
*123 FILLER_7_34
*124 FILLER_7_55
*125 FILLER_7_7
*126 FILLER_7_72
*127 FILLER_7_76
*128 FILLER_8_15
*129 FILLER_8_27
*130 FILLER_8_29
*131 FILLER_8_3
*132 FILLER_8_41
*133 FILLER_8_54
*134 FILLER_8_66
*135 FILLER_8_7
*136 FILLER_8_78
*137 FILLER_9_19
*138 FILLER_9_27
*139 FILLER_9_29
*140 FILLER_9_41
*141 FILLER_9_53
*142 FILLER_9_57
*143 FILLER_9_63
*144 FILLER_9_7
*145 FILLER_9_75
*146 PHY_EDGE_ROW_0_Left_10
*147 PHY_EDGE_ROW_0_Right_0
*148 PHY_EDGE_ROW_1_Left_11
*149 PHY_EDGE_ROW_1_Right_1
*150 PHY_EDGE_ROW_2_Left_12
*151 PHY_EDGE_ROW_2_Right_2
*152 PHY_EDGE_ROW_3_Left_13
*153 PHY_EDGE_ROW_3_Right_3
*154 PHY_EDGE_ROW_4_Left_14
*155 PHY_EDGE_ROW_4_Right_4
*156 PHY_EDGE_ROW_5_Left_15
*157 PHY_EDGE_ROW_5_Right_5
*158 PHY_EDGE_ROW_6_Left_16
*159 PHY_EDGE_ROW_6_Right_6
*160 PHY_EDGE_ROW_7_Left_17
*161 PHY_EDGE_ROW_7_Right_7
*162 PHY_EDGE_ROW_8_Left_18
*163 PHY_EDGE_ROW_8_Right_8
*164 PHY_EDGE_ROW_9_Left_19
*165 PHY_EDGE_ROW_9_Right_9
*166 TAP_TAPCELL_ROW_0_20
*167 TAP_TAPCELL_ROW_0_21
*168 TAP_TAPCELL_ROW_1_22
*169 TAP_TAPCELL_ROW_2_23
*170 TAP_TAPCELL_ROW_3_24
*171 TAP_TAPCELL_ROW_4_25
*172 TAP_TAPCELL_ROW_5_26
*173 TAP_TAPCELL_ROW_6_27
*174 TAP_TAPCELL_ROW_7_28
*175 TAP_TAPCELL_ROW_8_29
*176 TAP_TAPCELL_ROW_9_30
*177 TAP_TAPCELL_ROW_9_31
*178 _37_
*179 _38_
*180 _39_
*181 _40_
*182 _41_
*183 _42_
*184 _43_
*185 _44_
*186 _45_
*187 _46_
*188 _47_
*189 _48_
*190 _49_
*191 _50_
*192 _51_
*193 _52_
*194 _53_
*195 _54_
*196 _55_
*197 _56_
*198 _57_
*199 _58_
*200 _59_
*201 _60_
*202 _61_
*203 _62_
*204 _63_
*205 _64_
*206 _65_
*207 _66_
*208 _67_
*209 _68_
*210 _69_
*211 _70_
*212 _71_
*213 _72_
*214 _73_
*215 _74_
*216 _75_
*217 _76_
*218 _77_
*219 _78_
*220 _79_
*221 _80_
*222 input1
*223 input2
*224 input3
*225 input4
*226 input5
*227 input6
*228 input7
*229 input8
*230 mult4_SarsaNStepsRuido_e9_SARSA_RUIDO_e9_SARSA_RUIDO_e9_SARSA_RUIDO_e9_16
*231 output10
*232 output11
*233 output12
*234 output13
*235 output14
*236 output15
*237 output9

*PORTS
A[0] I
A[1] I
A[2] I
A[3] I
B[0] I
B[1] I
B[2] I
B[3] I
P[0] O
P[1] O
P[2] O
P[3] O
P[4] O
P[5] O
P[6] O
P[7] O

*D_NET *1 0.000976483
*CONN
*P A[0] I
*I *222:A I *D sky130_fd_sc_hd__clkbuf_2
*CAP
1 A[0] 0.000440425
2 *222:A 0.000440425
3 *222:A P[1] 0
4 *222:A *184:B1 5.62995e-05
5 *222:A *226:A 7.43578e-06
6 *222:A *56:8 1.21289e-05
7 *222:A *66:10 1.97695e-05
*RES
1 A[0] *222:A 22.4786 
*END

*D_NET *2 0.00084331
*CONN
*P A[1] I
*I *223:A I *D sky130_fd_sc_hd__dlymetal6s2s_1
*CAP
1 A[1] 0.000421655
2 *223:A 0.000421655
3 *223:A *226:A 0
4 *223:A *228:A 0
*RES
1 A[1] *223:A 21.8357 
*END

*D_NET *3 0.000578316
*CONN
*P A[2] I
*I *224:A I *D sky130_fd_sc_hd__clkbuf_2
*CAP
1 A[2] 0.000236297
2 *224:A 0.000236297
3 *224:A P[6] 0
4 *224:A P[7] 3.19385e-05
5 *224:A *229:A 2.87684e-05
6 *224:A *65:34 4.50149e-05
*RES
1 A[2] *224:A 18.4985 
*END

*D_NET *4 0.000688268
*CONN
*P A[3] I
*I *225:A I *D sky130_fd_sc_hd__buf_1
*CAP
1 A[3] 0.000329138
2 *225:A 0.000329138
3 *225:A *229:A 2.99915e-05
4 *225:A *65:12 0
*RES
1 A[3] *225:A 21.6946 
*END

*D_NET *5 0.00205661
*CONN
*P B[0] I
*I *226:A I *D sky130_fd_sc_hd__clkbuf_1
*CAP
1 B[0] 0.000623632
2 *226:A 0.000623632
3 *226:A P[1] 0
4 *226:A *179:A1 0.00013921
5 *226:A *179:A2 9.83442e-05
6 *226:A *56:8 0.000216121
7 *226:A *56:12 0.000139491
8 *226:A *63:6 9.71197e-05
9 *226:A *63:10 1.41642e-05
10 *226:A *66:10 9.74621e-05
11 *222:A *226:A 7.43578e-06
12 *223:A *226:A 0
*RES
1 B[0] *226:A 27.9071 
*END

*D_NET *6 0.00087234
*CONN
*P B[1] I
*I *227:A I *D sky130_fd_sc_hd__clkbuf_2
*CAP
1 B[1] 0.00043617
2 *227:A 0.00043617
3 *227:A *228:A 0
*RES
1 B[1] *227:A 21.9429 
*END

*D_NET *7 0.000847859
*CONN
*P B[2] I
*I *228:A I *D sky130_fd_sc_hd__buf_1
*CAP
1 B[2] 0.00042393
2 *228:A 0.00042393
3 *223:A *228:A 0
4 *227:A *228:A 0
*RES
1 B[2] *228:A 21.8357 
*END

*D_NET *8 0.000719045
*CONN
*P B[3] I
*I *229:A I *D sky130_fd_sc_hd__clkbuf_2
*CAP
1 B[3] 0.000330142
2 *229:A 0.000330142
3 *229:A *65:34 0
4 *224:A *229:A 2.87684e-05
5 *225:A *229:A 2.99915e-05
*RES
1 B[3] *229:A 21.8017 
*END

*D_NET *9 0.000450325
*CONN
*P P[0] O
*I *230:LO O *D sky130_fd_sc_hd__conb_1
*CAP
1 P[0] 0.000186854
2 *230:LO 0.000186854
3 P[0] P[2] 7.66163e-05
*RES
1 *230:LO P[0] 18.1229 
*END

*D_NET *10 0.000895012
*CONN
*P P[1] O
*I *237:X O *D sky130_fd_sc_hd__buf_2
*CAP
1 P[1] 0.000419891
2 *237:X 0.000419891
3 P[1] *66:10 5.52302e-05
4 *222:A P[1] 0
5 *226:A P[1] 0
*RES
1 *237:X P[1] 21.8893 
*END

*D_NET *11 0.000540374
*CONN
*P P[2] O
*I *231:X O *D sky130_fd_sc_hd__buf_2
*CAP
1 P[2] 0.000231879
2 *231:X 0.000231879
3 P[0] P[2] 7.66163e-05
*RES
1 *231:X P[2] 18.4985 
*END

*D_NET *12 0.000497534
*CONN
*P P[3] O
*I *232:X O *D sky130_fd_sc_hd__buf_2
*CAP
1 P[3] 0.000206743
2 *232:X 0.000206743
3 P[3] P[4] 8.40493e-05
4 P[3] *220:B 0
*RES
1 *232:X P[3] 18.1949 
*END

*D_NET *13 0.00048928
*CONN
*P P[4] O
*I *233:X O *D sky130_fd_sc_hd__buf_2
*CAP
1 P[4] 0.000202616
2 *233:X 0.000202616
3 P[3] P[4] 8.40493e-05
*RES
1 *233:X P[4] 18.1949 
*END

*D_NET *14 0.000951893
*CONN
*P P[5] O
*I *234:X O *D sky130_fd_sc_hd__buf_2
*CAP
1 P[5] 0.000475946
2 *234:X 0.000475946
*RES
1 *234:X P[5] 23.2643 
*END

*D_NET *15 0.000637679
*CONN
*P P[6] O
*I *235:X O *D sky130_fd_sc_hd__buf_2
*CAP
1 P[6] 0.000307542
2 *235:X 0.000307542
3 P[6] P[7] 2.25951e-05
4 P[6] *235:A 0
5 *224:A P[6] 0
*RES
1 *235:X P[6] 19.4092 
*END

*D_NET *16 0.000724586
*CONN
*P P[7] O
*I *236:X O *D sky130_fd_sc_hd__buf_2
*CAP
1 P[7] 0.000335026
2 *236:X 0.000335026
3 P[6] P[7] 2.25951e-05
4 *224:A P[7] 3.19385e-05
*RES
1 *236:X P[7] 20.891 
*END

*D_NET *19 0.00197609
*CONN
*I *183:A I *D sky130_fd_sc_hd__and3_1
*I *197:A1 I *D sky130_fd_sc_hd__a21bo_1
*I *184:B1 I *D sky130_fd_sc_hd__a21oi_1
*I *180:A I *D sky130_fd_sc_hd__nor2_1
*I *178:X O *D sky130_fd_sc_hd__and3_1
*CAP
1 *183:A 0
2 *197:A1 0.000187554
3 *184:B1 0.000468969
4 *180:A 1.03477e-05
5 *178:X 8.71609e-05
6 *19:19 0.000656523
7 *19:17 2.98849e-05
8 *19:8 0.000127394
9 *180:A *22:22 2.37656e-05
10 *184:B1 *180:B 6.44609e-05
11 *184:B1 *184:A2 0
12 *184:B1 *56:8 5.52302e-05
13 *184:B1 *56:40 0
14 *197:A1 *197:A2 5.71472e-05
15 *197:A1 *197:B1_N 0
16 *197:A1 *25:14 2.14757e-05
17 *197:A1 *56:40 0
18 *19:8 *178:C 0
19 *19:8 *180:B 5.52238e-05
20 *19:8 *22:22 5.31902e-05
21 *19:17 *22:22 2.14658e-05
22 *222:A *184:B1 5.62995e-05
*RES
1 *178:X *19:8 11.0857 
2 *19:8 *180:A 9.72857 
3 *19:8 *19:17 0.535714 
4 *19:17 *19:19 4.5 
5 *19:19 *184:B1 21.1571 
6 *19:19 *197:A1 16.9964 
7 *19:17 *183:A 9.3 
*END

*D_NET *20 0.00101099
*CONN
*I *180:B I *D sky130_fd_sc_hd__nor2_1
*I *179:Y O *D sky130_fd_sc_hd__a21oi_1
*CAP
1 *180:B 0.000248643
2 *179:Y 0.000248643
3 *180:B *237:A 7.83659e-05
4 *180:B *22:22 5.52238e-05
5 *180:B *56:8 0.000139913
6 *180:B *56:12 9.58126e-05
7 *180:B *56:40 2.47093e-05
8 *184:B1 *180:B 6.44609e-05
9 *19:8 *180:B 5.52238e-05
*RES
1 *179:Y *180:B 32.2607 
*END

*D_NET *21 0.00264519
*CONN
*I *197:A2 I *D sky130_fd_sc_hd__a21bo_1
*I *184:A1 I *D sky130_fd_sc_hd__a21oi_1
*I *183:B I *D sky130_fd_sc_hd__and3_1
*I *181:X O *D sky130_fd_sc_hd__a22o_1
*CAP
1 *197:A2 0.000195386
2 *184:A1 8.26636e-05
3 *183:B 0
4 *181:X 0.000276467
5 *21:17 0.000450222
6 *21:8 0.000448638
7 *184:A1 *184:A2 0.000150618
8 *184:A1 *24:12 2.93959e-05
9 *197:A2 *184:A2 9.71532e-05
10 *197:A2 *186:A 4.66203e-05
11 *197:A2 *187:A1 3.17067e-05
12 *197:A2 *197:B1_N 0.000100831
13 *197:A2 *24:12 0
14 *197:A2 *25:14 0.000274288
15 *21:8 *22:22 0.000351219
16 *21:17 *22:22 2.30526e-06
17 *21:17 *22:31 4.74569e-05
18 *21:17 *23:8 3.06878e-06
19 *197:A1 *197:A2 5.71472e-05
*RES
1 *181:X *21:8 14.3714 
2 *21:8 *183:B 9.3 
3 *21:8 *21:17 6.67857 
4 *21:17 *184:A1 15.7464 
5 *21:17 *197:A2 19.55 
*END

*D_NET *22 0.00338084
*CONN
*I *197:B1_N I *D sky130_fd_sc_hd__a21bo_1
*I *184:A2 I *D sky130_fd_sc_hd__a21oi_1
*I *183:C I *D sky130_fd_sc_hd__and3_1
*I *182:Y O *D sky130_fd_sc_hd__nand4_1
*CAP
1 *197:B1_N 5.646e-05
2 *184:A2 0.000136662
3 *183:C 0
4 *182:Y 0.000596047
5 *22:31 0.000253124
6 *22:22 0.000656049
7 *184:A2 *237:A 0
8 *22:22 *178:C 0.000134489
9 *22:22 *181:B1 2.93922e-05
10 *22:22 *35:14 0.000140882
11 *22:22 *56:54 0.000139523
12 *22:22 *67:40 0.000230206
13 *22:22 *67:55 5.74499e-06
14 *22:31 *23:8 9.90367e-05
15 *180:A *22:22 2.37656e-05
16 *180:B *22:22 5.52238e-05
17 *184:A1 *184:A2 0.000150618
18 *184:B1 *184:A2 0
19 *197:A1 *197:B1_N 0
20 *197:A2 *184:A2 9.71532e-05
21 *197:A2 *197:B1_N 0.000100831
22 *19:8 *22:22 5.31902e-05
23 *19:17 *22:22 2.14658e-05
24 *21:8 *22:22 0.000351219
25 *21:17 *22:22 2.30526e-06
26 *21:17 *22:31 4.74569e-05
*RES
1 *182:Y *22:22 22.9964 
2 *22:22 *183:C 9.3 
3 *22:22 *22:31 6.19643 
4 *22:31 *184:A2 16.9607 
5 *22:31 *197:B1_N 15.1393 
*END

*D_NET *23 0.00089851
*CONN
*I *186:A I *D sky130_fd_sc_hd__nor3_1
*I *187:A1 I *D sky130_fd_sc_hd__o21a_1
*I *183:X O *D sky130_fd_sc_hd__and3_1
*CAP
1 *186:A 8.92894e-05
2 *187:A1 1.77735e-05
3 *183:X 0.000184605
4 *23:8 0.000291667
5 *186:A *186:B 4.78056e-05
6 *186:A *25:14 5.52302e-05
7 *187:A1 *186:B 2.58997e-05
8 *187:A1 *24:12 5.80706e-06
9 *197:A2 *186:A 4.66203e-05
10 *197:A2 *187:A1 3.17067e-05
11 *21:17 *23:8 3.06878e-06
12 *22:31 *23:8 9.90367e-05
*RES
1 *183:X *23:8 15.9786 
2 *23:8 *187:A1 14.5321 
3 *23:8 *186:A 15.675 
*END

*D_NET *24 0.000958353
*CONN
*I *186:B I *D sky130_fd_sc_hd__nor3_1
*I *187:A2 I *D sky130_fd_sc_hd__o21a_1
*I *184:Y O *D sky130_fd_sc_hd__a21oi_1
*CAP
1 *186:B 0.000110804
2 *187:A2 3.44045e-05
3 *184:Y 0.00018722
4 *24:12 0.000332429
5 *186:B *186:C 6.05161e-06
6 *186:B *187:B1 0.000126439
7 *186:B *188:B 1.69115e-05
8 *186:B *25:14 2.59355e-05
9 *24:12 *187:B1 9.25014e-06
10 *184:A1 *24:12 2.93959e-05
11 *186:A *186:B 4.78056e-05
12 *187:A1 *186:B 2.58997e-05
13 *187:A1 *24:12 5.80706e-06
14 *197:A2 *24:12 0
*RES
1 *184:Y *24:12 16.8179 
2 *24:12 *187:A2 14.3357 
3 *24:12 *186:B 16.5857 
*END

*D_NET *25 0.0017433
*CONN
*I *186:C I *D sky130_fd_sc_hd__nor3_1
*I *187:B1 I *D sky130_fd_sc_hd__o21a_1
*I *185:Y O *D sky130_fd_sc_hd__nand2_1
*CAP
1 *186:C 6.54976e-05
2 *187:B1 5.66484e-05
3 *185:Y 0.000447352
4 *25:14 0.000569498
5 *186:C *188:A 0
6 *186:C *26:8 5.30637e-06
7 *187:B1 *188:B 3.92757e-05
8 *25:14 *185:A 2.37575e-05
9 *25:14 *195:A 0
10 *25:14 *36:12 1.72894e-05
11 *186:A *25:14 5.52302e-05
12 *186:B *186:C 6.05161e-06
13 *186:B *187:B1 0.000126439
14 *186:B *25:14 2.59355e-05
15 *197:A1 *25:14 2.14757e-05
16 *197:A2 *25:14 0.000274288
17 *24:12 *187:B1 9.25014e-06
*RES
1 *185:Y *25:14 16.6929 
2 *25:14 *187:B1 19.9429 
3 *25:14 *186:C 10.5679 
*END

*D_NET *26 0.00167414
*CONN
*I *188:A I *D sky130_fd_sc_hd__nor2_1
*I *219:B1 I *D sky130_fd_sc_hd__a21oi_1
*I *203:A I *D sky130_fd_sc_hd__and3_1
*I *186:Y O *D sky130_fd_sc_hd__nor3_1
*CAP
1 *188:A 4.19914e-05
2 *219:B1 3.56752e-05
3 *203:A 8.86688e-05
4 *186:Y 0.000108721
5 *26:14 0.000543087
6 *26:8 0.000569455
7 *188:A *231:A 2.44318e-05
8 *203:A *203:C 0
9 *203:A *219:A1 3.4855e-05
10 *203:A *219:A2 5.71472e-05
11 *26:8 *188:B 9.90431e-05
12 *26:8 *231:A 7.43578e-06
13 *26:14 *213:A2_N 0
14 *26:14 *220:B 5.83233e-05
15 *26:14 *41:12 0
16 *186:C *188:A 0
17 *186:C *26:8 5.30637e-06
*RES
1 *186:Y *26:8 11.4964 
2 *26:8 *26:14 16.4107 
3 *26:14 *203:A 11.0857 
4 *26:14 *219:B1 9.83571 
5 *26:8 *188:A 10.2643 
*END

*D_NET *27 0.000430664
*CONN
*I *188:B I *D sky130_fd_sc_hd__nor2_1
*I *187:X O *D sky130_fd_sc_hd__o21a_1
*CAP
1 *188:B 0.000137717
2 *187:X 0.000137717
3 *186:B *188:B 1.69115e-05
4 *187:B1 *188:B 3.92757e-05
5 *26:8 *188:B 9.90431e-05
*RES
1 *187:X *188:B 30.1893 
*END

*D_NET *28 0.00213749
*CONN
*I *206:A1 I *D sky130_fd_sc_hd__a21bo_1
*I *192:A I *D sky130_fd_sc_hd__nand3_1
*I *193:B1 I *D sky130_fd_sc_hd__a21o_1
*I *189:X O *D sky130_fd_sc_hd__and2_1
*CAP
1 *206:A1 0
2 *192:A 9.7401e-05
3 *193:B1 0
4 *189:X 0.000295514
5 *28:18 0.000275319
6 *28:12 0.000473432
7 *192:A *192:B 0.00020218
8 *192:A *192:C 0.000144773
9 *192:A *31:12 4.85049e-06
10 *192:A *32:12 8.57166e-06
11 *28:12 *189:B 1.02969e-05
12 *28:12 *190:C 0
13 *28:12 *191:B2 4.49293e-05
14 *28:12 *64:29 5.00512e-05
15 *28:12 *67:8 7.6644e-05
16 *28:12 *69:25 0
17 *28:18 *192:B 0.000219456
18 *28:18 *192:C 2.95641e-05
19 *28:18 *193:A1 0.000115863
20 *28:18 *206:A2 8.86413e-05
*RES
1 *189:X *28:12 22.9071 
2 *28:12 *28:18 4.57143 
3 *28:18 *193:B1 9.3 
4 *28:18 *192:A 12.8714 
5 *28:12 *206:A1 9.3 
*END

*D_NET *29 0.00223794
*CONN
*I *193:A1 I *D sky130_fd_sc_hd__a21o_1
*I *206:B1_N I *D sky130_fd_sc_hd__a21bo_1
*I *192:B I *D sky130_fd_sc_hd__nand3_1
*I *190:Y O *D sky130_fd_sc_hd__nand4_1
*CAP
1 *193:A1 3.92055e-05
2 *206:B1_N 0
3 *192:B 0.000230674
4 *190:Y 0.000214765
5 *29:29 5.76854e-05
6 *29:10 0.000463918
7 *192:B *32:12 8.07313e-05
8 *193:A1 *192:C 3.3283e-05
9 *193:A1 *206:A2 5.33005e-05
10 *29:10 *30:12 7.6644e-05
11 *29:10 *64:29 7.83659e-05
12 *29:10 *69:40 0.000270326
13 *29:29 *30:12 5.41794e-05
14 *29:29 *64:29 4.73656e-05
15 *192:A *192:B 0.00020218
16 *28:18 *192:B 0.000219456
17 *28:18 *193:A1 0.000115863
*RES
1 *190:Y *29:10 17.425 
2 *29:10 *192:B 18.9071 
3 *29:10 *29:29 5.23214 
4 *29:29 *206:B1_N 9.3 
5 *29:29 *193:A1 10.675 
*END

*D_NET *30 0.00136159
*CONN
*I *192:C I *D sky130_fd_sc_hd__nand3_1
*I *193:A2 I *D sky130_fd_sc_hd__a21o_1
*I *206:A2 I *D sky130_fd_sc_hd__a21bo_1
*I *191:X O *D sky130_fd_sc_hd__a22o_1
*CAP
1 *192:C 0.000140434
2 *193:A2 0
3 *206:A2 0.000130653
4 *191:X 0.000149159
5 *30:12 0.000420246
6 *30:12 *64:29 1.17968e-05
7 *30:12 *64:46 2.89114e-05
8 *192:A *192:C 0.000144773
9 *193:A1 *192:C 3.3283e-05
10 *193:A1 *206:A2 5.33005e-05
11 *28:18 *192:C 2.95641e-05
12 *28:18 *206:A2 8.86413e-05
13 *29:10 *30:12 7.6644e-05
14 *29:29 *30:12 5.41794e-05
*RES
1 *191:X *30:12 20.7821 
2 *30:12 *206:A2 11.8893 
3 *30:12 *193:A2 9.3 
4 *30:12 *192:C 12.3179 
*END

*D_NET *31 0.00098961
*CONN
*I *200:B2 I *D sky130_fd_sc_hd__a32oi_1
*I *194:A I *D sky130_fd_sc_hd__nand2_1
*I *192:Y O *D sky130_fd_sc_hd__nand3_1
*CAP
1 *200:B2 4.66641e-05
2 *194:A 0
3 *192:Y 0.000189684
4 *31:12 0.000236348
5 *200:B2 *200:B1 0.000142434
6 *200:B2 *35:14 5.52302e-05
7 *31:12 *32:12 0.000212833
8 *31:12 *35:14 0.000101566
9 *192:A *31:12 4.85049e-06
*RES
1 *192:Y *31:12 22.925 
2 *31:12 *194:A 9.3 
3 *31:12 *200:B2 10.6571 
*END

*D_NET *32 0.00154739
*CONN
*I *200:B1 I *D sky130_fd_sc_hd__a32oi_1
*I *194:B I *D sky130_fd_sc_hd__nand2_1
*I *193:X O *D sky130_fd_sc_hd__a21o_1
*CAP
1 *200:B1 0.000129239
2 *194:B 0
3 *193:X 0.000333434
4 *32:12 0.000462673
5 *200:B1 *201:A2_N 5.49544e-05
6 *200:B1 *33:10 7.86973e-05
7 *200:B1 *35:14 4.3825e-05
8 *32:12 *35:14 0
9 *192:A *32:12 8.57166e-06
10 *192:B *32:12 8.07313e-05
11 *200:B2 *200:B1 0.000142434
12 *31:12 *32:12 0.000212833
*RES
1 *193:X *32:12 24.05 
2 *32:12 *194:B 9.3 
3 *32:12 *200:B1 12.7286 
*END

*D_NET *33 0.00359946
*CONN
*I *209:A1 I *D sky130_fd_sc_hd__o21ai_1
*I *211:A I *D sky130_fd_sc_hd__or3_1
*I *213:A1_N I *D sky130_fd_sc_hd__a2bb2o_1
*I *201:B2 I *D sky130_fd_sc_hd__o2bb2a_1
*I *210:A I *D sky130_fd_sc_hd__nor3_1
*I *194:Y O *D sky130_fd_sc_hd__nand2_1
*CAP
1 *209:A1 7.64106e-05
2 *211:A 7.27449e-05
3 *213:A1_N 0.000280432
4 *201:B2 0
5 *210:A 0
6 *194:Y 0.000258753
7 *33:45 0.000263269
8 *33:23 0.000479
9 *33:14 0.000368044
10 *33:10 0.000542343
11 *209:A1 *209:A2 1.43727e-05
12 *209:A1 *46:12 3.34366e-05
13 *209:A1 *54:6 5.20669e-05
14 *211:A *209:A2 9.41642e-05
15 *211:A *211:C 6.51675e-05
16 *211:A *47:8 1.59373e-05
17 *211:A *54:6 5.74499e-06
18 *213:A1_N *213:A2_N 0.000175519
19 *213:A1_N *217:B1 0
20 *33:10 *34:58 0.000157381
21 *33:14 *201:A1_N 9.99853e-05
22 *33:14 *210:C 6.74893e-05
23 *33:14 *34:62 1.10868e-05
24 *33:14 *46:6 2.89114e-05
25 *33:23 *201:A1_N 0.000160213
26 *33:23 *217:B1 1.32552e-05
27 *33:23 *40:10 1.11813e-05
28 *33:45 *34:58 2.49484e-05
29 *33:45 *46:12 0.000148903
30 *200:B1 *33:10 7.86973e-05
*RES
1 *194:Y *33:10 18.925 
2 *33:10 *33:14 7.5 
3 *33:14 *210:A 9.3 
4 *33:14 *33:23 3.83929 
5 *33:23 *201:B2 9.3 
6 *33:23 *213:A1_N 23.5679 
7 *33:10 *33:45 2.55357 
8 *33:45 *211:A 15.5857 
9 *33:45 *209:A1 15.4786 
*END

*D_NET *34 0.0053722
*CONN
*I *211:B I *D sky130_fd_sc_hd__or3_1
*I *209:A2 I *D sky130_fd_sc_hd__o21ai_1
*I *210:B I *D sky130_fd_sc_hd__nor3_1
*I *201:A1_N I *D sky130_fd_sc_hd__o2bb2a_1
*I *200:A1 I *D sky130_fd_sc_hd__a32oi_1
*I *198:A I *D sky130_fd_sc_hd__nand3_1
*I *199:B1_N I *D sky130_fd_sc_hd__a21boi_1
*I *202:A1 I *D sky130_fd_sc_hd__a21o_1
*I *195:Y O *D sky130_fd_sc_hd__nand4_4
*CAP
1 *211:B 0
2 *209:A2 0.000111185
3 *210:B 0
4 *201:A1_N 7.44529e-05
5 *200:A1 6.8128e-05
6 *198:A 4.90978e-05
7 *199:B1_N 0.000334758
8 *202:A1 0
9 *195:Y 0.000171818
10 *34:80 0.000171512
11 *34:62 0.000142153
12 *34:58 0.00042556
13 *34:47 0.000418432
14 *34:22 0.000400712
15 *34:18 0.000626158
16 *34:10 0.000735697
17 *198:A *36:12 9.11365e-06
18 *199:B1_N *199:A1 0.000276211
19 *199:B1_N *201:B1 1.03968e-05
20 *200:A1 *35:14 9.77118e-05
21 *201:A1_N *210:C 3.50166e-05
22 *201:A1_N *217:B1 4.98342e-05
23 *201:A1_N *40:10 4.06312e-05
24 *34:10 *185:B 5.45307e-05
25 *34:10 *35:14 0.000112106
26 *34:18 *36:12 2.34204e-05
27 *34:22 *199:A1 4.38128e-05
28 *34:22 *35:27 5.52302e-05
29 *34:47 *35:14 3.57844e-05
30 *34:58 *35:14 1.17968e-05
31 *34:58 *46:12 3.34366e-05
32 *34:62 *210:C 9.83442e-05
33 *34:80 *46:12 9.30022e-05
34 *209:A1 *209:A2 1.43727e-05
35 *211:A *209:A2 9.41642e-05
36 *33:10 *34:58 0.000157381
37 *33:14 *201:A1_N 9.99853e-05
38 *33:14 *34:62 1.10868e-05
39 *33:23 *201:A1_N 0.000160213
40 *33:45 *34:58 2.49484e-05
*RES
1 *195:Y *34:10 17.3 
2 *34:10 *34:18 15.0893 
3 *34:18 *34:22 5.44643 
4 *34:22 *202:A1 9.3 
5 *34:22 *199:B1_N 14.2643 
6 *34:18 *198:A 14.5321 
7 *34:10 *34:47 1.03571 
8 *34:47 *200:A1 14.7464 
9 *34:47 *34:58 6.19643 
10 *34:58 *34:62 5.85714 
11 *34:62 *201:A1_N 12.358 
12 *34:62 *210:B 9.3 
13 *34:58 *34:80 5.83929 
14 *34:80 *209:A2 10.6571 
15 *34:80 *211:B 9.3 
*END

*D_NET *35 0.00347959
*CONN
*I *200:A2 I *D sky130_fd_sc_hd__a32oi_1
*I *199:A1 I *D sky130_fd_sc_hd__a21boi_1
*I *202:A2 I *D sky130_fd_sc_hd__a21o_1
*I *198:B I *D sky130_fd_sc_hd__nand3_1
*I *196:X O *D sky130_fd_sc_hd__a22o_1
*CAP
1 *200:A2 0
2 *199:A1 4.0871e-05
3 *202:A2 2.06112e-05
4 *198:B 0
5 *196:X 0.000488723
6 *35:27 9.30747e-05
7 *35:20 0.000317268
8 *35:14 0.000774399
9 *199:A1 *199:A2 0.000144773
10 *199:A1 *201:B1 1.32552e-05
11 *199:A1 *36:32 7.32955e-05
12 *202:A2 *36:19 0
13 *202:A2 *36:32 3.99614e-06
14 *35:14 *195:B 1.31516e-05
15 *35:14 *201:A2_N 3.18747e-05
16 *35:14 *56:48 5.6394e-05
17 *35:14 *63:10 0.000103974
18 *35:14 *63:34 0.000112323
19 *35:20 *200:A3 0.000125034
20 *35:20 *201:A2_N 7.15905e-06
21 *35:20 *36:19 5.7661e-06
22 *35:20 *36:32 2.77289e-05
23 *35:27 *36:32 5.17614e-05
24 *199:B1_N *199:A1 0.000276211
25 *200:A1 *35:14 9.77118e-05
26 *200:B1 *35:14 4.3825e-05
27 *200:B2 *35:14 5.52302e-05
28 *22:22 *35:14 0.000140882
29 *31:12 *35:14 0.000101566
30 *32:12 *35:14 0
31 *34:10 *35:14 0.000112106
32 *34:22 *199:A1 4.38128e-05
33 *34:22 *35:27 5.52302e-05
34 *34:47 *35:14 3.57844e-05
35 *34:58 *35:14 1.17968e-05
*RES
1 *196:X *35:14 29.55 
2 *35:14 *35:20 4.26786 
3 *35:20 *198:B 9.3 
4 *35:20 *35:27 0.946429 
5 *35:27 *202:A2 9.72857 
6 *35:27 *199:A1 12.3 
7 *35:14 *200:A2 9.3 
*END

*D_NET *36 0.00170809
*CONN
*I *199:A2 I *D sky130_fd_sc_hd__a21boi_1
*I *202:B1 I *D sky130_fd_sc_hd__a21o_1
*I *200:A3 I *D sky130_fd_sc_hd__a32oi_1
*I *198:C I *D sky130_fd_sc_hd__nand3_1
*I *197:X O *D sky130_fd_sc_hd__a21bo_1
*CAP
1 *199:A2 2.13901e-05
2 *202:B1 0
3 *200:A3 4.25039e-05
4 *198:C 0
5 *197:X 0.000269222
6 *36:32 0.000159484
7 *36:19 0.000200927
8 *36:12 0.000289551
9 *199:A2 *201:B1 5.23057e-05
10 *200:A3 *201:A2_N 0.000120893
11 *36:32 *201:A2_N 1.33343e-05
12 *36:32 *201:B1 5.62995e-05
13 *198:A *36:12 9.11365e-06
14 *199:A1 *199:A2 0.000144773
15 *199:A1 *36:32 7.32955e-05
16 *202:A2 *36:19 0
17 *202:A2 *36:32 3.99614e-06
18 *25:14 *36:12 1.72894e-05
19 *34:18 *36:12 2.34204e-05
20 *35:20 *200:A3 0.000125034
21 *35:20 *36:19 5.7661e-06
22 *35:20 *36:32 2.77289e-05
23 *35:27 *36:32 5.17614e-05
*RES
1 *197:X *36:12 22.6036 
2 *36:12 *198:C 9.3 
3 *36:12 *36:19 0.428571 
4 *36:19 *200:A3 11.4786 
5 *36:19 *36:32 3.85714 
6 *36:32 *202:B1 9.3 
7 *36:32 *199:A2 10.6571 
*END

*D_NET *37 0.00235563
*CONN
*I *219:A1 I *D sky130_fd_sc_hd__a21oi_1
*I *203:B I *D sky130_fd_sc_hd__and3_1
*I *213:A2_N I *D sky130_fd_sc_hd__a2bb2o_1
*I *198:Y O *D sky130_fd_sc_hd__nand3_1
*CAP
1 *219:A1 0.000118185
2 *203:B 0
3 *213:A2_N 0.000218483
4 *198:Y 0.000339898
5 *37:25 0.000209124
6 *37:12 0.000649319
7 *213:A2_N *201:B1 0
8 *213:A2_N *220:B 0
9 *213:A2_N *41:12 4.35131e-05
10 *213:A2_N *42:8 0.000129868
11 *213:A2_N *42:21 0.00014279
12 *219:A1 *203:C 0
13 *219:A1 *219:A2 0.000131439
14 *219:A1 *41:12 1.33343e-05
15 *37:12 *201:A2_N 2.79092e-05
16 *37:12 *201:B1 3.92757e-05
17 *37:12 *41:12 3.32631e-05
18 *37:25 *41:12 4.88546e-05
19 *203:A *219:A1 3.4855e-05
20 *213:A1_N *213:A2_N 0.000175519
21 *26:14 *213:A2_N 0
*RES
1 *198:Y *37:12 22.7464 
2 *37:12 *213:A2_N 24.1929 
3 *37:12 *37:25 1.35714 
4 *37:25 *203:B 9.3 
5 *37:25 *219:A1 12.2286 
*END

*D_NET *38 0.00114385
*CONN
*I *201:B1 I *D sky130_fd_sc_hd__o2bb2a_1
*I *199:Y O *D sky130_fd_sc_hd__a21boi_1
*CAP
1 *201:B1 0.000486159
2 *199:Y 0.000486159
3 *201:B1 *201:A2_N 0
4 *201:B1 *41:12 0
5 *199:A1 *201:B1 1.32552e-05
6 *199:A2 *201:B1 5.23057e-05
7 *199:B1_N *201:B1 1.03968e-05
8 *213:A2_N *201:B1 0
9 *36:32 *201:B1 5.62995e-05
10 *37:12 *201:B1 3.92757e-05
*RES
1 *199:Y *201:B1 35.0821 
*END

*D_NET *39 0.0010484
*CONN
*I *201:A2_N I *D sky130_fd_sc_hd__o2bb2a_1
*I *200:Y O *D sky130_fd_sc_hd__a32oi_1
*CAP
1 *201:A2_N 0.000396137
2 *200:Y 0.000396137
3 *201:A2_N *41:12 0
4 *200:A3 *201:A2_N 0.000120893
5 *200:B1 *201:A2_N 5.49544e-05
6 *201:B1 *201:A2_N 0
7 *35:14 *201:A2_N 3.18747e-05
8 *35:20 *201:A2_N 7.15905e-06
9 *36:32 *201:A2_N 1.33343e-05
10 *37:12 *201:A2_N 2.79092e-05
*RES
1 *200:Y *201:A2_N 35.1893 
*END

*D_NET *40 0.00185649
*CONN
*I *204:A I *D sky130_fd_sc_hd__xor2_1
*I *213:B1 I *D sky130_fd_sc_hd__a2bb2o_1
*I *217:A1 I *D sky130_fd_sc_hd__a31o_1
*I *201:X O *D sky130_fd_sc_hd__o2bb2a_1
*CAP
1 *204:A 9.20744e-05
2 *213:B1 0
3 *217:A1 0
4 *201:X 0.000105978
5 *40:23 0.000456228
6 *40:10 0.000470132
7 *204:A *204:B 4.88637e-05
8 *204:A *233:A 0
9 *40:10 *217:A2 5.59013e-05
10 *40:10 *217:B1 0.000222332
11 *40:23 *204:B 3.18676e-05
12 *40:23 *212:A 0.000142856
13 *40:23 *212:B 3.48705e-05
14 *40:23 *217:A2 7.70208e-05
15 *40:23 *217:B1 1.02504e-05
16 *40:23 *42:38 5.62995e-05
17 *201:A1_N *40:10 4.06312e-05
18 *33:23 *40:10 1.11813e-05
*RES
1 *201:X *40:10 16.6929 
2 *40:10 *217:A1 13.8 
3 *40:10 *40:23 11.5179 
4 *40:23 *213:B1 9.3 
5 *40:23 *204:A 11.0857 
*END

*D_NET *41 0.000912877
*CONN
*I *219:A2 I *D sky130_fd_sc_hd__a21oi_1
*I *203:C I *D sky130_fd_sc_hd__and3_1
*I *202:X O *D sky130_fd_sc_hd__a21o_1
*CAP
1 *219:A2 3.30712e-05
2 *203:C 2.98865e-05
3 *202:X 0.000229706
4 *41:12 0.000292663
5 *201:A2_N *41:12 0
6 *201:B1 *41:12 0
7 *203:A *203:C 0
8 *203:A *219:A2 5.71472e-05
9 *213:A2_N *41:12 4.35131e-05
10 *219:A1 *203:C 0
11 *219:A1 *219:A2 0.000131439
12 *219:A1 *41:12 1.33343e-05
13 *26:14 *41:12 0
14 *37:12 *41:12 3.32631e-05
15 *37:25 *41:12 4.88546e-05
*RES
1 *202:X *41:12 22.7286 
2 *41:12 *203:C 9.925 
3 *41:12 *219:A2 10.6571 
*END

*D_NET *42 0.00256584
*CONN
*I *204:B I *D sky130_fd_sc_hd__xor2_1
*I *213:B2 I *D sky130_fd_sc_hd__a2bb2o_1
*I *217:A2 I *D sky130_fd_sc_hd__a31o_1
*I *220:A I *D sky130_fd_sc_hd__nor2_1
*I *203:X O *D sky130_fd_sc_hd__and3_1
*CAP
1 *204:B 5.02949e-05
2 *213:B2 0
3 *217:A2 0.000447367
4 *220:A 0.000159471
5 *203:X 6.48825e-05
6 *42:38 0.000125153
7 *42:21 0.000602766
8 *42:8 0.000304894
9 *217:A2 *212:B 0.000268396
10 *42:8 *220:B 0
11 *42:38 *212:B 0
12 *204:A *204:B 4.88637e-05
13 *213:A2_N *42:8 0.000129868
14 *213:A2_N *42:21 0.00014279
15 *40:10 *217:A2 5.59013e-05
16 *40:23 *204:B 3.18676e-05
17 *40:23 *217:A2 7.70208e-05
18 *40:23 *42:38 5.62995e-05
*RES
1 *203:X *42:8 15.4429 
2 *42:8 *220:A 16.3893 
3 *42:8 *42:21 6.44643 
4 *42:21 *217:A2 24.4964 
5 *42:21 *42:38 1.67857 
6 *42:38 *213:B2 9.3 
7 *42:38 *204:B 10.6571 
*END

*D_NET *43 0.000329759
*CONN
*I *208:A I *D sky130_fd_sc_hd__xor2_1
*I *205:Y O *D sky130_fd_sc_hd__nand2_1
*CAP
1 *208:A 0.00012365
2 *205:Y 0.00012365
3 *208:A *208:B 4.57445e-05
4 *208:A *52:12 3.67142e-05
*RES
1 *205:Y *208:A 30.1893 
*END

*D_NET *44 0.00112691
*CONN
*I *208:B I *D sky130_fd_sc_hd__xor2_1
*I *207:C I *D sky130_fd_sc_hd__and3_1
*I *206:X O *D sky130_fd_sc_hd__a21bo_1
*CAP
1 *208:B 9.68702e-05
2 *207:C 9.94534e-06
3 *206:X 0.000230681
4 *44:8 0.000337496
5 *207:C *45:10 3.99846e-05
6 *207:C *64:16 3.99846e-05
7 *208:B *45:10 0
8 *208:B *45:23 0
9 *208:B *64:12 3.84385e-05
10 *208:B *65:47 9.25014e-06
11 *44:8 *215:A1 0
12 *44:8 *64:12 4.1331e-06
13 *44:8 *64:29 0
14 *44:8 *65:34 0
15 *44:8 *69:25 0.00027438
16 *208:A *208:B 4.57445e-05
*RES
1 *206:X *44:8 18.4786 
2 *44:8 *207:C 14.1929 
3 *44:8 *208:B 16.05 
*END

*D_NET *45 0.00192043
*CONN
*I *221:A2 I *D sky130_fd_sc_hd__a22o_1
*I *216:A2 I *D sky130_fd_sc_hd__a21bo_1
*I *215:B1 I *D sky130_fd_sc_hd__a21o_1
*I *207:X O *D sky130_fd_sc_hd__and3_1
*CAP
1 *221:A2 6.03263e-05
2 *216:A2 0
3 *215:B1 0
4 *207:X 0.00021992
5 *45:23 0.00022571
6 *45:10 0.000385303
7 *221:A2 *218:B 2.28499e-05
8 *221:A2 *221:A1 0.000318107
9 *221:A2 *221:B1 0.000142856
10 *221:A2 *236:A 0.000108603
11 *45:10 *215:A1 4.15914e-05
12 *45:10 *64:12 0.000101545
13 *45:10 *64:16 8.02215e-05
14 *45:10 *65:34 0
15 *45:10 *69:19 1.32552e-05
16 *45:23 *218:A 2.89114e-05
17 *45:23 *218:B 7.43578e-06
18 *45:23 *221:A1 7.79781e-06
19 *45:23 *236:A 5.33433e-05
20 *45:23 *65:47 6.26653e-05
21 *207:C *45:10 3.99846e-05
22 *208:B *45:10 0
23 *208:B *45:23 0
*RES
1 *207:X *45:10 17.6214 
2 *45:10 *215:B1 13.8 
3 *45:10 *45:23 8.30357 
4 *45:23 *216:A2 9.3 
5 *45:23 *221:A2 12.7107 
*END

*D_NET *46 0.00190629
*CONN
*I *210:C I *D sky130_fd_sc_hd__nor3_1
*I *211:C I *D sky130_fd_sc_hd__or3_1
*I *209:B1 I *D sky130_fd_sc_hd__o21ai_1
*I *208:X O *D sky130_fd_sc_hd__xor2_1
*CAP
1 *210:C 5.74592e-05
2 *211:C 3.47595e-05
3 *209:B1 0
4 *208:X 0.000473351
5 *46:12 0.000106275
6 *46:6 0.000602325
7 *211:C *47:8 2.84109e-05
8 *201:A1_N *210:C 3.50166e-05
9 *209:A1 *46:12 3.34366e-05
10 *211:A *211:C 6.51675e-05
11 *33:14 *210:C 6.74893e-05
12 *33:14 *46:6 2.89114e-05
13 *33:45 *46:12 0.000148903
14 *34:58 *46:12 3.34366e-05
15 *34:62 *210:C 9.83442e-05
16 *34:80 *46:12 9.30022e-05
*RES
1 *208:X *46:6 17.2286 
2 *46:6 *46:12 11.25 
3 *46:12 *209:B1 9.3 
4 *46:12 *211:C 10.2643 
5 *46:6 *210:C 11.0857 
*END

*D_NET *47 0.00102392
*CONN
*I *212:A I *D sky130_fd_sc_hd__nand2_1
*I *217:A3 I *D sky130_fd_sc_hd__a31o_1
*I *209:Y O *D sky130_fd_sc_hd__o21ai_1
*CAP
1 *212:A 7.01622e-05
2 *217:A3 0
3 *209:Y 0.000128386
4 *47:8 0.000198548
5 *212:A *212:B 0.000115961
6 *47:8 *212:B 4.98342e-05
7 *47:8 *54:6 0.000273821
8 *211:A *47:8 1.59373e-05
9 *211:C *47:8 2.84109e-05
10 *40:23 *212:A 0.000142856
*RES
1 *209:Y *47:8 13.1393 
2 *47:8 *217:A3 9.3 
3 *47:8 *212:A 11.4786 
*END

*D_NET *48 0.000826558
*CONN
*I *217:B1 I *D sky130_fd_sc_hd__a31o_1
*I *210:Y O *D sky130_fd_sc_hd__nor3_1
*CAP
1 *217:B1 0.000265443
2 *210:Y 0.000265443
3 *201:A1_N *217:B1 4.98342e-05
4 *213:A1_N *217:B1 0
5 *33:23 *217:B1 1.32552e-05
6 *40:10 *217:B1 0.000222332
7 *40:23 *217:B1 1.02504e-05
*RES
1 *210:Y *217:B1 31.8321 
*END

*D_NET *49 0.00083976
*CONN
*I *212:B I *D sky130_fd_sc_hd__nand2_1
*I *211:X O *D sky130_fd_sc_hd__or3_1
*CAP
1 *212:B 0.000185349
2 *211:X 0.000185349
3 *212:A *212:B 0.000115961
4 *217:A2 *212:B 0.000268396
5 *40:23 *212:B 3.48705e-05
6 *42:38 *212:B 0
7 *47:8 *212:B 4.98342e-05
*RES
1 *211:X *212:B 23.5643 
*END

*D_NET *50 0.000424681
*CONN
*I *214:A I *D sky130_fd_sc_hd__xnor2_1
*I *212:Y O *D sky130_fd_sc_hd__nand2_1
*CAP
1 *214:A 0.000162822
2 *212:Y 0.000162822
3 *214:A *214:B 9.90367e-05
*RES
1 *212:Y *214:A 30.6 
*END

*D_NET *51 0.000663283
*CONN
*I *214:B I *D sky130_fd_sc_hd__xnor2_1
*I *213:X O *D sky130_fd_sc_hd__a2bb2o_1
*CAP
1 *214:B 0.000282123