*SPEF "ieee 1481-1999"
*DESIGN "SARSA_WInd_e8"
*DATE "09:51:22 Friday September 12, 2025"
*VENDOR "The OpenROAD Project"
*PROGRAM "OpenROAD"
*VERSION "edf00dff99f6c40d67a30c0e22a8191c5d2ed9d6"
*DESIGN_FLOW "NAME_SCOPE LOCAL" "PIN_CAP NONE"
*DIVIDER /
*DELIMITER :
*BUS_DELIMITER []
*T_UNIT 1 NS
*C_UNIT 1 PF
*R_UNIT 1 OHM
*L_UNIT 1 HENRY

*NAME_MAP
*1 A[0]
*2 A[1]
*3 B[0]
*4 B[1]
*5 P[0]
*6 P[1]
*7 P[2]
*8 P[3]
*11 net1
*12 net2
*13 net3
*14 net4
*15 net5
*16 net6
*17 net7
*18 net8
*19 FILLER_0_15
*20 FILLER_0_27
*21 FILLER_0_29
*22 FILLER_0_3
*23 FILLER_0_41
*24 FILLER_0_53
*25 FILLER_0_57
*26 FILLER_0_69
*27 FILLER_1_15
*28 FILLER_1_27
*29 FILLER_1_3
*30 FILLER_1_39
*31 FILLER_1_51
*32 FILLER_1_55
*33 FILLER_1_57
*34 FILLER_1_69
*35 FILLER_2_18
*36 FILLER_2_26
*37 FILLER_2_29
*38 FILLER_2_41
*39 FILLER_2_53
*40 FILLER_2_6
*41 FILLER_2_65
*42 FILLER_2_77
*43 FILLER_3_15
*44 FILLER_3_3
*45 FILLER_3_32
*46 FILLER_3_44
*47 FILLER_3_57
*48 FILLER_3_69
*49 FILLER_4_19
*50 FILLER_4_27
*51 FILLER_4_36
*52 FILLER_4_48
*53 FILLER_4_60
*54 FILLER_4_7
*55 FILLER_4_72
*56 FILLER_4_76
*57 FILLER_5_18
*58 FILLER_5_38
*59 FILLER_5_50
*60 FILLER_5_57
*61 FILLER_5_6
*62 FILLER_5_69
*63 FILLER_6_18
*64 FILLER_6_26
*65 FILLER_6_29
*66 FILLER_6_41
*67 FILLER_6_53
*68 FILLER_6_6
*69 FILLER_6_65
*70 FILLER_7_18
*71 FILLER_7_30
*72 FILLER_7_42
*73 FILLER_7_54
*74 FILLER_7_57
*75 FILLER_7_6
*76 FILLER_7_69
*77 FILLER_8_15
*78 FILLER_8_27
*79 FILLER_8_29
*80 FILLER_8_3
*81 FILLER_8_41
*82 FILLER_8_53
*83 FILLER_8_65
*84 FILLER_8_77
*85 FILLER_9_15
*86 FILLER_9_27
*87 FILLER_9_29
*88 FILLER_9_3
*89 FILLER_9_41
*90 FILLER_9_53
*91 FILLER_9_57
*92 FILLER_9_69
*93 PHY_EDGE_ROW_0_Left_10
*94 PHY_EDGE_ROW_0_Right_0
*95 PHY_EDGE_ROW_1_Left_11
*96 PHY_EDGE_ROW_1_Right_1
*97 PHY_EDGE_ROW_2_Left_12
*98 PHY_EDGE_ROW_2_Right_2
*99 PHY_EDGE_ROW_3_Left_13
*100 PHY_EDGE_ROW_3_Right_3
*101 PHY_EDGE_ROW_4_Left_14
*102 PHY_EDGE_ROW_4_Right_4
*103 PHY_EDGE_ROW_5_Left_15
*104 PHY_EDGE_ROW_5_Right_5
*105 PHY_EDGE_ROW_6_Left_16
*106 PHY_EDGE_ROW_6_Right_6
*107 PHY_EDGE_ROW_7_Left_17
*108 PHY_EDGE_ROW_7_Right_7
*109 PHY_EDGE_ROW_8_Left_18
*110 PHY_EDGE_ROW_8_Right_8
*111 PHY_EDGE_ROW_9_Left_19
*112 PHY_EDGE_ROW_9_Right_9
*113 TAP_TAPCELL_ROW_0_20
*114 TAP_TAPCELL_ROW_0_21
*115 TAP_TAPCELL_ROW_1_22
*116 TAP_TAPCELL_ROW_2_23
*117 TAP_TAPCELL_ROW_3_24
*118 TAP_TAPCELL_ROW_4_25
*119 TAP_TAPCELL_ROW_5_26
*120 TAP_TAPCELL_ROW_6_27
*121 TAP_TAPCELL_ROW_7_28
*122 TAP_TAPCELL_ROW_8_29
*123 TAP_TAPCELL_ROW_9_30
*124 TAP_TAPCELL_ROW_9_31
*125 _0_
*126 _1_
*127 _2_
*128 _3_
*129 input1
*130 input2
*131 input3
*132 input4
*133 output5
*134 output6
*135 output7
*136 output8

*PORTS
A[0] I
A[1] I
B[0] I
B[1] I
P[0] O
P[1] O
P[2] O
P[3] O

*D_NET *1 0.000572527
*CONN
*P A[0] I
*I *129:A I *D sky130_fd_sc_hd__clkbuf_1
*CAP
1 A[0] 0.000272764
2 *129:A 0.000272764
3 *129:A P[0] 2.69997e-05
*RES
1 A[0] *129:A 7.0893 
*END

*D_NET *2 0.000532809
*CONN
*P A[1] I
*I *130:A I *D sky130_fd_sc_hd__buf_1
*CAP
1 A[1] 0.000255159
2 *130:A 0.000255159
3 *130:A *132:A 2.24901e-05
*RES
1 A[1] *130:A 6.8343 
*END

*D_NET *3 0.000623243
*CONN
*P B[0] I
*I *131:A I *D sky130_fd_sc_hd__clkbuf_1
*CAP
1 B[0] 0.00028255
2 *131:A 0.00028255
3 *131:A P[0] 2.96366e-05
4 *131:A *132:A 2.85068e-05
*RES
1 B[0] *131:A 7.5993 
*END

*D_NET *4 0.000502057
*CONN
*P B[1] I
*I *132:A I *D sky130_fd_sc_hd__buf_1
*CAP
1 B[1] 0.00022553
2 *132:A 0.00022553
3 *130:A *132:A 2.24901e-05
4 *131:A *132:A 2.85068e-05
*RES
1 B[1] *132:A 5.35677 
*END

*D_NET *5 0.000719351
*CONN
*P P[0] O
*I *133:X O *D sky130_fd_sc_hd__buf_2
*CAP
1 P[0] 0.000331357
2 *133:X 0.000331357
3 *129:A P[0] 2.69997e-05
4 *131:A P[0] 2.96366e-05
*RES
1 *133:X P[0] 7.6893 
*END

*D_NET *6 0.000462966
*CONN
*P P[1] O
*I *134:X O *D sky130_fd_sc_hd__buf_2
*CAP
1 P[1] 0.000185209
2 *134:X 0.000185209
3 P[1] P[3] 9.25475e-05
*RES
1 *134:X P[1] 4.90503 
*END

*D_NET *7 0.000584515
*CONN
*P P[2] O
*I *135:X O *D sky130_fd_sc_hd__buf_2
*CAP
1 P[2] 0.000245984
2 *135:X 0.000245984
3 P[2] P[3] 9.25475e-05
*RES
1 *135:X P[2] 5.92503 
*END

*D_NET *8 0.000534897
*CONN
*P P[3] O
*I *136:X O *D sky130_fd_sc_hd__buf_2
*CAP
1 P[3] 0.000174901
2 *136:X 0.000174901
3 P[1] P[3] 9.25475e-05
4 P[2] P[3] 9.25475e-05
*RES
1 *136:X P[3] 5.41503 
*END

*D_NET *11 0.00133091
*CONN
*I *125:B I *D sky130_fd_sc_hd__and2_1
*I *129:X O *D sky130_fd_sc_hd__clkbuf_1
*CAP
1 *125:B 0.000665456
2 *129:X 0.000665456
*RES
1 *129:X *125:B 17.22 
*END

*D_NET *12 0.00297162
*CONN
*I *127:B I *D sky130_fd_sc_hd__xor2_1
*I *126:B I *D sky130_fd_sc_hd__and3_1
*I *128:B I *D sky130_fd_sc_hd__and3b_1
*I *130:X O *D sky130_fd_sc_hd__buf_1
*CAP
1 *127:B 0
2 *126:B 0.00010741
3 *128:B 0.000102983
4 *130:X 0.000901294
5 *12:16 0.00032345
6 *12:12 0.00101435
7 *126:B *126:A 1.91597e-05
8 *126:B *134:A 0.000122801
9 *128:B *126:C 9.37731e-05
10 *128:B *128:C 5.92224e-05
11 *128:B *15:12 3.64998e-06
12 *12:12 *128:C 3.25831e-05
13 *12:12 *14:10 0.000109009
14 *12:16 *125:A 1.08758e-05
15 *12:16 *126:A 7.10578e-05
*RES
1 *130:X *12:12 16.97 
2 *12:12 *12:16 1.845 
3 *12:16 *128:B 7.52 
4 *12:16 *126:B 3.445 
5 *12:12 *127:B 1.6 
*END

*D_NET *13 0.00196024
*CONN
*I *125:A I *D sky130_fd_sc_hd__and2_1
*I *131:X O *D sky130_fd_sc_hd__clkbuf_1
*CAP
1 *125:A 0.000893524
2 *131:X 0.000893524
3 *125:A *128:C 0.000162318
4 *125:A *15:8 0
5 *12:16 *125:A 1.08758e-05
*RES
1 *131:X *125:A 18.57 
*END

*D_NET *14 0.00290524
*CONN
*I *126:A I *D sky130_fd_sc_hd__and3_1
*I *127:A I *D sky130_fd_sc_hd__xor2_1
*I *128:C I *D sky130_fd_sc_hd__and3b_1
*I *132:X O *D sky130_fd_sc_hd__buf_1
*CAP
1 *126:A 0.00010724
2 *127:A 0
3 *128:C 0.000207822
4 *132:X 0.000799669
5 *14:23 0.00010724
6 *14:10 0.00100749
7 *126:A *126:C 2.68526e-05
8 *126:A *134:A 4.77757e-05
9 *128:C *126:C 1.43892e-05
10 *128:C *133:A 4.82919e-05
11 *128:C *15:8 1.0183e-05
12 *128:C *15:12 7.49327e-05
13 *14:10 *126:C 0
14 *125:A *128:C 0.000162318
15 *126:B *126:A 1.91597e-05
16 *128:B *128:C 5.92224e-05
17 *12:12 *128:C 3.25831e-05
18 *12:12 *14:10 0.000109009
19 *12:16 *126:A 7.10578e-05
*RES
1 *132:X *14:10 13.02 
2 *14:10 *128:C 8.085 
3 *14:10 *14:23 2 
4 *14:23 *127:A 1.6 
5 *14:23 *126:A 3.79 
*END

*D_NET *15 0.00221651
*CONN
*I *126:C I *D sky130_fd_sc_hd__and3_1
*I *128:A_N I *D sky130_fd_sc_hd__and3b_1
*I *133:A I *D sky130_fd_sc_hd__buf_2
*I *125:X O *D sky130_fd_sc_hd__and2_1
*CAP
1 *126:C 0.000303954
2 *128:A_N 0
3 *133:A 0.000531779
4 *125:X 8.7791e-05
5 *15:12 0.000563915
6 *15:8 0.00042388
7 *126:C *134:A 3.312e-05
8 *125:A *15:8 0
9 *126:A *126:C 2.68526e-05
10 *128:B *126:C 9.37731e-05
11 *128:B *15:12 3.64998e-06
12 *128:C *126:C 1.43892e-05
13 *128:C *133:A 4.82919e-05
14 *128:C *15:8 1.0183e-05
15 *128:C *15:12 7.49327e-05
16 *14:10 *126:C 0
*RES
1 *125:X *15:8 4.98 
2 *15:8 *15:12 2.795 
3 *15:12 *133:A 9.64 
4 *15:12 *128:A_N 1.6 
5 *15:8 *126:C 8.265 
*END

*D_NET *16 0.00261966
*CONN
*I *134:A I *D sky130_fd_sc_hd__buf_2
*I *127:X O *D sky130_fd_sc_hd__xor2_1
*CAP
1 *134:A 0.000932774
2 *127:X 0.000932774
3 *134:A *136:A 0.000550415
4 *126:A *134:A 4.77757e-05
5 *126:B *134:A 0.000122801
6 *126:C *134:A 3.312e-05
*RES
1 *127:X *134:A 25.08 
*END

*D_NET *17 0.00248845
*CONN
*I *135:A I *D sky130_fd_sc_hd__buf_2
*I *128:X O *D sky130_fd_sc_hd__and3b_1
*CAP
1 *135:A 0.00124422
2 *128:X 0.00124422
*RES
1 *128:X *135:A 18.515 
*END

*D_NET *18 0.00254616
*CONN
*I *136:A I *D sky130_fd_sc_hd__buf_2
*I *126:X O *D sky130_fd_sc_hd__and3_1
*CAP
1 *136:A 0.000997874
2 *126:X 0.000997874
3 *134:A *136:A 0.000550415
*RES
1 *126:X *136:A 17.825 
*END
