*SPEF "ieee 1481-1999"
*DESIGN "SarsaNada_e10_1"
*DATE "09:58:24 Friday September 12, 2025"
*VENDOR "The OpenROAD Project"
*PROGRAM "OpenROAD"
*VERSION "edf00dff99f6c40d67a30c0e22a8191c5d2ed9d6"
*DESIGN_FLOW "NAME_SCOPE LOCAL" "PIN_CAP NONE"
*DIVIDER /
*DELIMITER :
*BUS_DELIMITER []
*T_UNIT 1 NS
*C_UNIT 1 PF
*R_UNIT 1 OHM
*L_UNIT 1 HENRY

*NAME_MAP
*1 A[0]
*2 A[1]
*3 B[0]
*4 B[1]
*5 P[0]
*6 P[1]
*7 P[2]
*8 P[3]
*11 _0_
*12 _1_
*13 _2_
*14 net1
*15 net2
*16 net3
*17 net4
*18 net5
*19 net6
*20 net7
*21 net8
*22 FILLER_0_15
*23 FILLER_0_27
*24 FILLER_0_29
*25 FILLER_0_3
*26 FILLER_0_41
*27 FILLER_0_53
*28 FILLER_0_57
*29 FILLER_0_69
*30 FILLER_1_15
*31 FILLER_1_27
*32 FILLER_1_3
*33 FILLER_1_39
*34 FILLER_1_51
*35 FILLER_1_55
*36 FILLER_1_57
*37 FILLER_1_69
*38 FILLER_2_15
*39 FILLER_2_27
*40 FILLER_2_29
*41 FILLER_2_3
*42 FILLER_2_41
*43 FILLER_2_53
*44 FILLER_2_65
*45 FILLER_2_77
*46 FILLER_3_15
*47 FILLER_3_27
*48 FILLER_3_3
*49 FILLER_3_39
*50 FILLER_3_51
*51 FILLER_3_55
*52 FILLER_3_57
*53 FILLER_3_69
*54 FILLER_4_18
*55 FILLER_4_26
*56 FILLER_4_29
*57 FILLER_4_41
*58 FILLER_4_53
*59 FILLER_4_6
*60 FILLER_4_65
*61 FILLER_4_77
*62 FILLER_5_19
*63 FILLER_5_31
*64 FILLER_5_43
*65 FILLER_5_55
*66 FILLER_5_57
*67 FILLER_5_69
*68 FILLER_5_7
*69 FILLER_6_22
*70 FILLER_6_29
*71 FILLER_6_41
*72 FILLER_6_53
*73 FILLER_6_6
*74 FILLER_6_65
*75 FILLER_6_77
*76 FILLER_7_32
*77 FILLER_7_44
*78 FILLER_7_57
*79 FILLER_7_6
*80 FILLER_7_69
*81 FILLER_8_15
*82 FILLER_8_27
*83 FILLER_8_29
*84 FILLER_8_3
*85 FILLER_8_37
*86 FILLER_8_46
*87 FILLER_8_58
*88 FILLER_8_70
*89 FILLER_8_78
*90 FILLER_9_15
*91 FILLER_9_27
*92 FILLER_9_29
*93 FILLER_9_3
*94 FILLER_9_37
*95 FILLER_9_42
*96 FILLER_9_49
*97 FILLER_9_55
*98 FILLER_9_57
*99 FILLER_9_69
*100 PHY_EDGE_ROW_0_Left_10
*101 PHY_EDGE_ROW_0_Right_0
*102 PHY_EDGE_ROW_1_Left_11
*103 PHY_EDGE_ROW_1_Right_1
*104 PHY_EDGE_ROW_2_Left_12
*105 PHY_EDGE_ROW_2_Right_2
*106 PHY_EDGE_ROW_3_Left_13
*107 PHY_EDGE_ROW_3_Right_3
*108 PHY_EDGE_ROW_4_Left_14
*109 PHY_EDGE_ROW_4_Right_4
*110 PHY_EDGE_ROW_5_Left_15
*111 PHY_EDGE_ROW_5_Right_5
*112 PHY_EDGE_ROW_6_Left_16
*113 PHY_EDGE_ROW_6_Right_6
*114 PHY_EDGE_ROW_7_Left_17
*115 PHY_EDGE_ROW_7_Right_7
*116 PHY_EDGE_ROW_8_Left_18
*117 PHY_EDGE_ROW_8_Right_8
*118 PHY_EDGE_ROW_9_Left_19
*119 PHY_EDGE_ROW_9_Right_9
*120 TAP_TAPCELL_ROW_0_20
*121 TAP_TAPCELL_ROW_0_21
*122 TAP_TAPCELL_ROW_1_22
*123 TAP_TAPCELL_ROW_2_23
*124 TAP_TAPCELL_ROW_3_24
*125 TAP_TAPCELL_ROW_4_25
*126 TAP_TAPCELL_ROW_5_26
*127 TAP_TAPCELL_ROW_6_27
*128 TAP_TAPCELL_ROW_7_28
*129 TAP_TAPCELL_ROW_8_29
*130 TAP_TAPCELL_ROW_9_30
*131 TAP_TAPCELL_ROW_9_31
*132 _3_
*133 _4_
*134 _5_
*135 _6_
*136 _7_
*137 _8_
*138 _9_
*139 input1
*140 input2
*141 input3
*142 input4
*143 output5
*144 output6
*145 output7
*146 output8

*PORTS
A[0] I
A[1] I
B[0] I
B[1] I
P[0] O
P[1] O
P[2] O
P[3] O

*D_NET *1 0.000733319
*CONN
*P A[0] I
*I *139:A I *D sky130_fd_sc_hd__buf_1
*CAP
1 A[0] 0.000352215
2 *139:A 0
3 *1:17 0.000352215
4 *1:17 P[0] 2.43221e-05
5 *1:17 *5:14 4.56684e-06
*RES
1 A[0] *1:17 28.2148 
2 *1:17 *139:A 23 
*END

*D_NET *2 0.000980476
*CONN
*P A[1] I
*I *140:A I *D sky130_fd_sc_hd__buf_1
*CAP
1 A[1] 0.000490238
2 *140:A 0.000490238
3 *140:A P[2] 0
*RES
1 A[1] *140:A 48.73 
*END

*D_NET *3 0.000553828
*CONN
*P B[0] I
*I *141:A I *D sky130_fd_sc_hd__buf_1
*CAP
1 B[0] 0.000252335
2 *141:A 0.000252335
3 *141:A P[0] 1.5289e-05
4 *141:A *142:A 2.12457e-05
5 *141:A *5:14 1.26232e-05
*RES
1 B[0] *141:A 47.7832 
*END

*D_NET *4 0.000616196
*CONN
*P B[1] I
*I *142:A I *D sky130_fd_sc_hd__buf_1
*CAP
1 B[1] 0.000297475
2 *142:A 0.000297475
3 *141:A *142:A 2.12457e-05
*RES
1 B[1] *142:A 49.8062 
*END

*D_NET *5 0.000763907
*CONN
*P P[0] O
*I *143:X O *D sky130_fd_sc_hd__buf_2
*CAP
1 P[0] 7.58295e-05
2 *143:X 0.000277724
3 *5:14 0.000353553
4 *141:A P[0] 1.5289e-05
5 *141:A *5:14 1.26232e-05
6 *1:17 P[0] 2.43221e-05
7 *1:17 *5:14 4.56684e-06
*RES
1 *143:X *5:14 49.9 
2 *5:14 P[0] 0.382667 
*END

*D_NET *6 0.000502077
*CONN
*P P[1] O
*I *144:X O *D sky130_fd_sc_hd__buf_2
*CAP
1 P[1] 0.000251039
2 *144:X 0.000251039
*RES
1 *144:X P[1] 47.1648 
*END

*D_NET *7 0.00100219
*CONN
*P P[2] O
*I *145:X O *D sky130_fd_sc_hd__buf_2
*CAP
1 P[2] 0.000501094
2 *145:X 0.000501094
3 P[2] P[3] 0
4 *140:A P[2] 0
*RES
1 *145:X P[2] 48.9786 
*END

*D_NET *8 0.000960449
*CONN
*P P[3] O
*I *146:X O *D sky130_fd_sc_hd__buf_2
*CAP
1 P[3] 0.000480224
2 *146:X 0.000480224
3 P[2] P[3] 0
*RES
1 *146:X P[3] 48.5021 
*END

*D_NET *11 0.000840755
*CONN
*I *137:A1 I *D sky130_fd_sc_hd__o21ba_1
*I *135:Y O *D sky130_fd_sc_hd__nor2_1
*CAP
1 *137:A1 0
2 *135:Y 0.000324769
3 *11:8 0.000324769
4 *11:8 *137:B1_N 3.98818e-05
5 *11:8 *12:10 4.50282e-05
6 *11:8 *15:20 8.7283e-06
7 *11:8 *19:10 9.75779e-05
*RES
1 *135:Y *11:8 28.2821 
2 *11:8 *137:A1 23 
*END

*D_NET *12 0.00126323
*CONN
*I *137:A2 I *D sky130_fd_sc_hd__o21ba_1
*I *136:X O *D sky130_fd_sc_hd__a22o_1
*CAP
1 *137:A2 0
2 *136:X 0.00023142
3 *12:10 0.00023142
4 *12:10 *136:A2 3.91386e-05
5 *12:10 *137:B1_N 0.000378803
6 *12:10 *15:20 0.00020485
7 *12:10 *21:8 0.000132572
8 *11:8 *12:10 4.50282e-05
*RES
1 *136:X *12:10 31.7621 
2 *12:10 *137:A2 23 
*END

*D_NET *13 0.000275251
*CONN
*I *133:A1 I *D sky130_fd_sc_hd__mux2_1
*I *132:X O *D sky130_fd_sc_hd__a21bo_1
*CAP
1 *133:A1 4.00017e-05
2 *132:X 6.87722e-05
3 *13:8 0.000108774
4 *133:A1 *133:A0 3.22879e-05
5 *13:8 *17:12 2.5415e-05
*RES
1 *132:X *13:8 39.2014 
2 *13:8 *133:A1 38.6214 
*END

*D_NET *14 0.00325782
*CONN
*I *134:D I *D sky130_fd_sc_hd__and4_1
*I *136:B1 I *D sky130_fd_sc_hd__a22o_1
*I *132:B1_N I *D sky130_fd_sc_hd__a21bo_1
*I *133:A0 I *D sky130_fd_sc_hd__mux2_1
*I *139:X O *D sky130_fd_sc_hd__buf_1
*CAP
1 *134:D 0
2 *136:B1 6.43917e-05
3 *132:B1_N 0
4 *133:A0 0.000113396
5 *139:X 0.000601574
6 *14:38 0.000353765
7 *14:25 0.000480022
8 *14:10 0.000905619
9 *136:B1 *134:C 3.91386e-05
10 *136:B1 *136:A1 0.000128401
11 *136:B1 *136:A2 1.37232e-05
12 *136:B1 *15:22 0.000228909
13 *14:10 *17:12 3.70094e-05
14 *14:25 *16:21 2.7237e-05
15 *14:25 *17:12 0.000131744
16 *14:38 *136:B2 4.21594e-06
17 *14:38 *16:21 9.63918e-05
18 *14:38 *17:12 0
19 *133:A1 *133:A0 3.22879e-05
*RES
1 *139:X *14:10 46.5964 
2 *14:10 *133:A0 40.0507 
3 *14:10 *14:25 18.48 
4 *14:25 *132:B1_N 23 
5 *14:25 *14:38 34.64 
6 *14:38 *136:B1 26.5214 
7 *14:38 *134:D 23 
*END

*D_NET *15 0.00563654
*CONN
*I *138:B I *D sky130_fd_sc_hd__and3b_1
*I *135:B I *D sky130_fd_sc_hd__nor2_1
*I *136:A2 I *D sky130_fd_sc_hd__a22o_1
*I *134:C I *D sky130_fd_sc_hd__and4_1
*I *132:A2 I *D sky130_fd_sc_hd__a21bo_1
*I *140:X O *D sky130_fd_sc_hd__buf_1
*CAP
1 *138:B 0.000328375
2 *135:B 0
3 *136:A2 3.05759e-05
4 *134:C 2.91006e-05
5 *132:A2 0
6 *140:X 0.000153952
7 *15:32 0.000319511
8 *15:22 0.000535207
9 *15:20 0.00106025
10 *15:12 0.00101072
11 *15:10 0.000649966
12 *134:C *136:A1 1.14154e-05
13 *136:A2 *21:8 3.22879e-05
14 *138:B *17:49 2.98475e-06
15 *138:B *17:62 0.00012563
16 *15:12 *17:62 5.72749e-05
17 *15:20 *137:B1_N 0.000497199
18 *15:20 *17:62 6.07611e-06
19 *15:20 *19:10 4.05196e-05
20 *15:20 *21:8 3.58084e-06
21 *15:22 *136:A1 3.34129e-05
22 *15:22 *21:8 9.24795e-06
23 *15:32 *136:A1 9.8971e-06
24 *15:32 *17:6 3.82058e-06
25 *15:32 *17:12 0.000138718
26 *15:32 *17:19 4.38068e-06
27 *15:32 *17:34 7.9567e-06
28 *136:B1 *134:C 3.91386e-05
29 *136:B1 *136:A2 1.37232e-05
30 *136:B1 *15:22 0.000228909
31 *11:8 *15:20 8.7283e-06
32 *12:10 *136:A2 3.91386e-05
33 *12:10 *15:20 0.00020485
*RES
1 *140:X *15:10 40.175 
2 *15:10 *15:12 3.31429 
3 *15:12 *15:20 28.7543 
4 *15:20 *15:22 4.43286 
5 *15:22 *15:32 34.93 
6 *15:32 *132:A2 23 
7 *15:22 *134:C 23.8493 
8 *15:20 *136:A2 24.4707 
9 *15:12 *135:B 38 
10 *15:10 *138:B 44.3593 
*END

*D_NET *16 0.00207722
*CONN
*I *136:A1 I *D sky130_fd_sc_hd__a22o_1
*I *134:B I *D sky130_fd_sc_hd__and4_1
*I *132:A1 I *D sky130_fd_sc_hd__a21bo_1
*I *141:X O *D sky130_fd_sc_hd__buf_1
*CAP
1 *136:A1 0.000106583
2 *134:B 0
3 *132:A1 2.34823e-05
4 *141:X 0.000363212
5 *16:21 0.000300064
6 *16:6 0.000580175
7 *136:A1 *134:A 5.90675e-06
8 *136:A1 *17:34 0.000143655
9 *136:A1 *21:8 0.000184527
10 *16:21 *17:12 6.28591e-05
11 *134:C *136:A1 1.14154e-05
12 *136:B1 *136:A1 0.000128401
13 *14:25 *16:21 2.7237e-05
14 *14:38 *16:21 9.63918e-05
15 *15:22 *136:A1 3.34129e-05
16 *15:32 *136:A1 9.8971e-06
*RES
1 *141:X *16:6 28.8621 
2 *16:6 *132:A1 23.4971 
3 *16:6 *16:21 34.1843 
4 *16:21 *134:B 23 
5 *16:21 *136:A1 27.4536 
*END

*D_NET *17 0.00538419
*CONN
*I *135:A I *D sky130_fd_sc_hd__nor2_1
*I *138:C I *D sky130_fd_sc_hd__and3b_1
*I *136:B2 I *D sky130_fd_sc_hd__a22o_1
*I *134:A I *D sky130_fd_sc_hd__and4_1
*I *133:S I *D sky130_fd_sc_hd__mux2_1
*I *142:X O *D sky130_fd_sc_hd__buf_1
*CAP
1 *135:A 0
2 *138:C 0
3 *136:B2 4.21174e-05
4 *134:A 2.14194e-05
5 *133:S 0
6 *142:X 0.000451624
7 *17:62 0.000430993
8 *17:49 0.00119568
9 *17:34 0.00105796
10 *17:19 0.000319404
11 *17:12 0.000304444
12 *17:6 0.000802898
13 *136:A1 *134:A 5.90675e-06
14 *136:A1 *17:34 0.000143655
15 *138:B *17:49 2.98475e-06
16 *138:B *17:62 0.00012563
17 *13:8 *17:12 2.5415e-05
18 *14:10 *17:12 3.70094e-05
19 *14:25 *17:12 0.000131744
20 *14:38 *136:B2 4.21594e-06
21 *14:38 *17:12 0
22 *15:12 *17:62 5.72749e-05
23 *15:20 *17:62 6.07611e-06
24 *15:32 *17:6 3.82058e-06
25 *15:32 *17:12 0.000138718
26 *15:32 *17:19 4.38068e-06
27 *15:32 *17:34 7.9567e-06
28 *16:21 *17:12 6.28591e-05
*RES
1 *142:X *17:6 28.8621 
2 *17:6 *17:12 36.8357 
3 *17:12 *133:S 23 
4 *17:6 *17:19 0.621429 
5 *17:19 *134:A 23.4971 
6 *17:19 *17:34 18.9461 
7 *17:34 *136:B2 39.0254 
8 *17:34 *17:49 24.7461 
9 *17:49 *138:C 23 
10 *17:49 *17:62 36.815 
11 *17:62 *135:A 23 
*END

*D_NET *18 0.000301016
*CONN
*I *143:A I *D sky130_fd_sc_hd__buf_2
*I *133:X O *D sky130_fd_sc_hd__mux2_1
*CAP
1 *143:A 0.000150508
2 *133:X 0.000150508
*RES
1 *133:X *143:A 48.9 
*END

*D_NET *19 0.00146429
*CONN
*I *144:A I *D sky130_fd_sc_hd__buf_2
*I *137:X O *D sky130_fd_sc_hd__o21ba_1
*CAP
1 *144:A 0
2 *137:X 0.000663098
3 *19:10 0.000663098
4 *11:8 *19:10 9.75779e-05
5 *15:20 *19:10 4.05196e-05
*RES
1 *137:X *19:10 35.6979 
2 *19:10 *144:A 23 
*END

*D_NET *20 0.000251877
*CONN
*I *145:A I *D sky130_fd_sc_hd__buf_2
*I *138:X O *D sky130_fd_sc_hd__and3b_1
*CAP
1 *145:A 0
2 *138:X 0.000125938
3 *20:8 0.000125938
4 *20:8 *146:A 0
*RES
1 *138:X *20:8 40.2579 
2 *20:8 *145:A 38 
*END

*D_NET *21 0.00334568
*CONN
*I *146:A I *D sky130_fd_sc_hd__buf_2
*I *138:A_N I *D sky130_fd_sc_hd__and3b_1
*I *137:B1_N I *D sky130_fd_sc_hd__o21ba_1
*I *134:X O *D sky130_fd_sc_hd__and4_1
*CAP
1 *146:A 0.000240345
2 *138:A_N 0
3 *137:B1_N 0.000203167
4 *134:X 0.000469364
5 *21:23 0.000361258
6 *21:8 0.000793445
7 *136:A1 *21:8 0.000184527
8 *136:A2 *21:8 3.22879e-05
9 *11:8 *137:B1_N 3.98818e-05
10 *12:10 *137:B1_N 0.000378803
11 *12:10 *21:8 0.000132572
12 *15:20 *137:B1_N 0.000497199
13 *15:20 *21:8 3.58084e-06
14 *15:22 *21:8 9.24795e-06
15 *20:8 *146:A 0
*RES
1 *134:X *21:8 45.2914 
2 *21:8 *137:B1_N 45.7886 
3 *21:8 *21:23 1.90571 
4 *21:23 *138:A_N 38 
5 *21:23 *146:A 42.4121 
*END
