*SPEF "ieee 1481-1999"
*DESIGN "SARSA_WInd_e8"
*DATE "14:00:06 Tuesday September 16, 2025"
*VENDOR "The OpenROAD Project"
*PROGRAM "OpenROAD"
*VERSION "edf00dff99f6c40d67a30c0e22a8191c5d2ed9d6"
*DESIGN_FLOW "NAME_SCOPE LOCAL" "PIN_CAP NONE"
*DIVIDER /
*DELIMITER :
*BUS_DELIMITER []
*T_UNIT 1 NS
*C_UNIT 1 PF
*R_UNIT 1 OHM
*L_UNIT 1 HENRY

*NAME_MAP
*1 A[0]
*2 A[1]
*3 B[0]
*4 B[1]
*5 P[0]
*6 P[1]
*7 P[2]
*8 net8
*11 net1
*12 net2
*13 net3
*14 net4
*15 net5
*16 net6
*17 net7
*18 pp0
*19 FILLER_0_15
*20 FILLER_0_27
*21 FILLER_0_29
*22 FILLER_0_3
*23 FILLER_0_41
*24 FILLER_0_53
*25 FILLER_0_57
*26 FILLER_0_69
*27 FILLER_1_15
*28 FILLER_1_27
*29 FILLER_1_3
*30 FILLER_1_39
*31 FILLER_1_51
*32 FILLER_1_55
*33 FILLER_1_57
*34 FILLER_1_69
*35 FILLER_2_18
*36 FILLER_2_26
*37 FILLER_2_29
*38 FILLER_2_41
*39 FILLER_2_53
*40 FILLER_2_6
*41 FILLER_2_65
*42 FILLER_2_77
*43 FILLER_3_11
*44 FILLER_3_17
*45 FILLER_3_25
*46 FILLER_3_3
*47 FILLER_3_31
*48 FILLER_3_43
*49 FILLER_3_55
*50 FILLER_3_57
*51 FILLER_3_69
*52 FILLER_4_10
*53 FILLER_4_18
*54 FILLER_4_26
*55 FILLER_4_29
*56 FILLER_4_41
*57 FILLER_4_53
*58 FILLER_4_6
*59 FILLER_4_65
*60 FILLER_5_17
*61 FILLER_5_29
*62 FILLER_5_41
*63 FILLER_5_53
*64 FILLER_5_57
*65 FILLER_5_6
*66 FILLER_5_69
*67 FILLER_6_19
*68 FILLER_6_27
*69 FILLER_6_29
*70 FILLER_6_41
*71 FILLER_6_53
*72 FILLER_6_65
*73 FILLER_6_7
*74 FILLER_6_77
*75 FILLER_7_18
*76 FILLER_7_30
*77 FILLER_7_42
*78 FILLER_7_54
*79 FILLER_7_57
*80 FILLER_7_6
*81 FILLER_7_69
*82 FILLER_8_15
*83 FILLER_8_27
*84 FILLER_8_29
*85 FILLER_8_3
*86 FILLER_8_41
*87 FILLER_8_53
*88 FILLER_8_65
*89 FILLER_8_77
*90 FILLER_9_15
*91 FILLER_9_27
*92 FILLER_9_29
*93 FILLER_9_3
*94 FILLER_9_41
*95 FILLER_9_53
*96 FILLER_9_57
*97 FILLER_9_69
*98 PHY_EDGE_ROW_0_Left_10
*99 PHY_EDGE_ROW_0_Right_0
*100 PHY_EDGE_ROW_1_Left_11
*101 PHY_EDGE_ROW_1_Right_1
*102 PHY_EDGE_ROW_2_Left_12
*103 PHY_EDGE_ROW_2_Right_2
*104 PHY_EDGE_ROW_3_Left_13
*105 PHY_EDGE_ROW_3_Right_3
*106 PHY_EDGE_ROW_4_Left_14
*107 PHY_EDGE_ROW_4_Right_4
*108 PHY_EDGE_ROW_5_Left_15
*109 PHY_EDGE_ROW_5_Right_5
*110 PHY_EDGE_ROW_6_Left_16
*111 PHY_EDGE_ROW_6_Right_6
*112 PHY_EDGE_ROW_7_Left_17
*113 PHY_EDGE_ROW_7_Right_7
*114 PHY_EDGE_ROW_8_Left_18
*115 PHY_EDGE_ROW_8_Right_8
*116 PHY_EDGE_ROW_9_Left_19
*117 PHY_EDGE_ROW_9_Right_9
*118 SARSA_WInd_e8_8
*119 TAP_TAPCELL_ROW_0_20
*120 TAP_TAPCELL_ROW_0_21
*121 TAP_TAPCELL_ROW_1_22
*122 TAP_TAPCELL_ROW_2_23
*123 TAP_TAPCELL_ROW_3_24
*124 TAP_TAPCELL_ROW_4_25
*125 TAP_TAPCELL_ROW_5_26
*126 TAP_TAPCELL_ROW_6_27
*127 TAP_TAPCELL_ROW_7_28
*128 TAP_TAPCELL_ROW_8_29
*129 TAP_TAPCELL_ROW_9_30
*130 TAP_TAPCELL_ROW_9_31
*131 _0_
*132 _1_
*133 _2_
*134 _4_
*135 input1
*136 input2
*137 input3
*138 input4
*139 output5
*140 output6
*141 output7

*PORTS
A[0] I
A[1] I
B[0] I
B[1] I
P[0] O
P[1] O
P[2] O
P[3] O

*D_NET *1 0.000572527
*CONN
*P A[0] I
*I *135:A I *D sky130_fd_sc_hd__clkbuf_1
*CAP
1 A[0] 0.000272764
2 *135:A 0.000272764
3 *135:A *136:A 2.69997e-05
*RES
1 A[0] *135:A 7.0893 
*END

*D_NET *2 0.000651011
*CONN
*P A[1] I
*I *136:A I *D sky130_fd_sc_hd__clkbuf_1
*CAP
1 A[1] 0.000297188
2 *136:A 0.000297188
3 *136:A *138:A 2.96366e-05
4 *135:A *136:A 2.69997e-05
*RES
1 A[1] *136:A 7.8543 
*END

*D_NET *3 0.000532809
*CONN
*P B[0] I
*I *137:A I *D sky130_fd_sc_hd__clkbuf_1
*CAP
1 B[0] 0.000255159
2 *137:A 0.000255159
3 *137:A P[2] 2.24901e-05
*RES
1 B[0] *137:A 6.8343 
*END

*D_NET *4 0.000623243
*CONN
*P B[1] I
*I *138:A I *D sky130_fd_sc_hd__clkbuf_1
*CAP
1 B[1] 0.00028255
2 *138:A 0.00028255
3 *138:A P[2] 2.85068e-05
4 *136:A *138:A 2.96366e-05
*RES
1 B[1] *138:A 7.5993 
*END

*D_NET *5 0.000597683
*CONN
*P P[0] O
*I *139:X O *D sky130_fd_sc_hd__buf_2
*CAP
1 P[0] 0.000222223
2 *139:X 0.000222223
3 P[0] P[1] 9.25475e-05
4 P[0] *139:A 6.06899e-05
*RES
1 *139:X P[0] 5.92503 
*END

*D_NET *6 0.000534416
*CONN
*P P[1] O
*I *140:X O *D sky130_fd_sc_hd__buf_2
*CAP
1 P[1] 0.000178266
2 *140:X 0.000178266
3 P[1] P[3] 8.53361e-05
4 P[0] P[1] 9.25475e-05
*RES
1 *140:X P[1] 5.41503 
*END

*D_NET *7 0.000493804
*CONN
*P P[2] O
*I *141:X O *D sky130_fd_sc_hd__buf_2
*CAP
1 P[2] 0.00021661
2 *141:X 0.00021661
3 P[2] *141:A 9.58678e-06
4 *137:A P[2] 2.24901e-05
5 *138:A P[2] 2.85068e-05
*RES
1 *141:X P[2] 4.90503 
*END

*D_NET *8 0.000469235
*CONN
*P P[3] O
*I *118:LO O *D sky130_fd_sc_hd__conb_1
*CAP
1 P[3] 0.000191949
2 *118:LO 0.000191949
3 P[1] P[3] 8.53361e-05
*RES
1 *118:LO P[3] 5.35677 
*END

*D_NET *11 0.000673653
*CONN
*I *133:B I *D sky130_fd_sc_hd__and2_1
*I *135:X O *D sky130_fd_sc_hd__clkbuf_1
*CAP
1 *133:B 0.000312681
2 *135:X 0.000312681
3 *133:B *133:A 4.82919e-05
*RES
1 *135:X *133:B 12.045 
*END

*D_NET *12 0.000979621
*CONN
*I *131:A I *D sky130_fd_sc_hd__and2_1
*I *132:A I *D sky130_fd_sc_hd__xor2_1
*I *136:X O *D sky130_fd_sc_hd__clkbuf_1
*CAP
1 *131:A 0.00013612
2 *132:A 2.47998e-05
3 *136:X 0.000216031
4 *12:8 0.000376951
5 *131:A *131:B 4.82919e-05
6 *131:A *132:B 0.000133075
7 *131:A *140:A 0
8 *132:A *132:B 3.09164e-05
9 *132:A *133:A 1.34361e-05
*RES
1 *136:X *12:8 6.465 
2 *12:8 *132:A 4.215 
3 *12:8 *131:A 6.375 
*END

*D_NET *13 0.00156414
*CONN
*I *133:A I *D sky130_fd_sc_hd__and2_1
*I *137:X O *D sky130_fd_sc_hd__clkbuf_1
*CAP
1 *133:A 0.000658504
2 *137:X 0.000658504
3 *133:A *132:B 0.000185405
4 *133:A *141:A 0
5 *132:A *133:A 1.34361e-05
6 *133:B *133:A 4.82919e-05
*RES
1 *137:X *133:A 17.58 
*END

*D_NET *14 0.0010458
*CONN
*I *131:B I *D sky130_fd_sc_hd__and2_1
*I *132:B I *D sky130_fd_sc_hd__xor2_1
*I *138:X O *D sky130_fd_sc_hd__clkbuf_1
*CAP
1 *131:B 4.17215e-05
2 *132:B 5.03583e-05
3 *138:X 0.000159667
4 *14:8 0.000251747
5 *131:B *141:A 5.83121e-06
6 *132:B *140:A 0
7 *14:8 *141:A 0.000138791
8 *131:A *131:B 4.82919e-05
9 *131:A *132:B 0.000133075
10 *132:A *132:B 3.09164e-05
11 *133:A *132:B 0.000185405
*RES
1 *138:X *14:8 4.735 
2 *14:8 *132:B 7.745 
3 *14:8 *131:B 2.395 
*END

*D_NET *15 0.00268743
*CONN
*I *139:A I *D sky130_fd_sc_hd__buf_2
*I *134:X O *D sky130_fd_sc_hd__clkbuf_1
*CAP
1 *139:A 0.00131337
2 *134:X 0.00131337
3 P[0] *139:A 6.06899e-05
*RES
1 *134:X *139:A 25.92 
*END

*D_NET *16 0.00301348
*CONN
*I *140:A I *D sky130_fd_sc_hd__buf_2
*I *132:X O *D sky130_fd_sc_hd__xor2_1
*CAP
1 *140:A 0.00150674
2 *132:X 0.00150674
3 *131:A *140:A 0
4 *132:B *140:A 0
*RES
1 *132:X *140:A 29.64 
*END

*D_NET *17 0.000660291
*CONN
*I *141:A I *D sky130_fd_sc_hd__buf_2
*I *131:X O *D sky130_fd_sc_hd__and2_1
*CAP
1 *141:A 0.000253041
2 *131:X 0.000253041
3 P[2] *141:A 9.58678e-06
4 *131:B *141:A 5.83121e-06
5 *133:A *141:A 0
6 *14:8 *141:A 0.000138791
*RES
1 *131:X *141:A 10.755 
*END

*D_NET *18 0.000563227
*CONN
*I *134:A I *D sky130_fd_sc_hd__clkbuf_1
*I *133:X O *D sky130_fd_sc_hd__and2_1
*CAP
1 *134:A 0.000281614
2 *133:X 0.000281614
*RES
1 *133:X *134:A 7.445 
*END
