*SPEF "ieee 1481-1999"
*DESIGN "SARSANSTEPS_VENTAJA_e7"
*DATE "11:27:52 Friday September 12, 2025"
*VENDOR "The OpenROAD Project"
*PROGRAM "OpenROAD"
*VERSION "edf00dff99f6c40d67a30c0e22a8191c5d2ed9d6"
*DESIGN_FLOW "NAME_SCOPE LOCAL" "PIN_CAP NONE"
*DIVIDER /
*DELIMITER :
*BUS_DELIMITER []
*T_UNIT 1 NS
*C_UNIT 1 PF
*R_UNIT 1 OHM
*L_UNIT 1 HENRY

*NAME_MAP
*1 A[0]
*2 A[1]
*3 B[0]
*4 B[1]
*5 P[0]
*6 P[1]
*7 P[2]
*8 P[3]
*11 _00_
*12 _01_
*13 _02_
*14 _03_
*15 net1
*16 net2
*17 net3
*18 net4
*19 net5
*20 net6
*21 net7
*22 net8
*23 FILLER_0_15
*24 FILLER_0_27
*25 FILLER_0_29
*26 FILLER_0_3
*27 FILLER_0_41
*28 FILLER_0_49
*29 FILLER_0_57
*30 FILLER_0_69
*31 FILLER_1_15
*32 FILLER_1_27
*33 FILLER_1_3
*34 FILLER_1_39
*35 FILLER_1_52
*36 FILLER_1_57
*37 FILLER_1_69
*38 FILLER_2_15
*39 FILLER_2_27
*40 FILLER_2_29
*41 FILLER_2_3
*42 FILLER_2_41
*43 FILLER_2_53
*44 FILLER_2_65
*45 FILLER_2_77
*46 FILLER_3_15
*47 FILLER_3_27
*48 FILLER_3_3
*49 FILLER_3_39
*50 FILLER_3_51
*51 FILLER_3_55
*52 FILLER_3_57
*53 FILLER_3_69
*54 FILLER_4_15
*55 FILLER_4_27
*56 FILLER_4_29
*57 FILLER_4_3
*58 FILLER_4_41
*59 FILLER_4_53
*60 FILLER_4_65
*61 FILLER_4_77
*62 FILLER_5_13
*63 FILLER_5_21
*64 FILLER_5_30
*65 FILLER_5_42
*66 FILLER_5_55
*67 FILLER_5_57
*68 FILLER_5_68
*69 FILLER_5_80
*70 FILLER_6_18
*71 FILLER_6_36
*72 FILLER_6_48
*73 FILLER_6_59
*74 FILLER_6_6
*75 FILLER_6_71
*76 FILLER_7_19
*77 FILLER_7_31
*78 FILLER_7_43
*79 FILLER_7_55
*80 FILLER_7_57
*81 FILLER_7_69
*82 FILLER_7_7
*83 FILLER_7_77
*84 FILLER_8_15
*85 FILLER_8_27
*86 FILLER_8_29
*87 FILLER_8_3
*88 FILLER_8_41
*89 FILLER_8_50
*90 FILLER_8_62
*91 FILLER_8_74
*92 FILLER_8_80
*93 FILLER_9_15
*94 FILLER_9_27
*95 FILLER_9_29
*96 FILLER_9_3
*97 FILLER_9_41
*98 FILLER_9_49
*99 FILLER_9_57
*100 FILLER_9_69
*101 PHY_EDGE_ROW_0_Left_10
*102 PHY_EDGE_ROW_0_Right_0
*103 PHY_EDGE_ROW_1_Left_11
*104 PHY_EDGE_ROW_1_Right_1
*105 PHY_EDGE_ROW_2_Left_12
*106 PHY_EDGE_ROW_2_Right_2
*107 PHY_EDGE_ROW_3_Left_13
*108 PHY_EDGE_ROW_3_Right_3
*109 PHY_EDGE_ROW_4_Left_14
*110 PHY_EDGE_ROW_4_Right_4
*111 PHY_EDGE_ROW_5_Left_15
*112 PHY_EDGE_ROW_5_Right_5
*113 PHY_EDGE_ROW_6_Left_16
*114 PHY_EDGE_ROW_6_Right_6
*115 PHY_EDGE_ROW_7_Left_17
*116 PHY_EDGE_ROW_7_Right_7
*117 PHY_EDGE_ROW_8_Left_18
*118 PHY_EDGE_ROW_8_Right_8
*119 PHY_EDGE_ROW_9_Left_19
*120 PHY_EDGE_ROW_9_Right_9
*121 TAP_TAPCELL_ROW_0_20
*122 TAP_TAPCELL_ROW_0_21
*123 TAP_TAPCELL_ROW_1_22
*124 TAP_TAPCELL_ROW_2_23
*125 TAP_TAPCELL_ROW_3_24
*126 TAP_TAPCELL_ROW_4_25
*127 TAP_TAPCELL_ROW_5_26
*128 TAP_TAPCELL_ROW_6_27
*129 TAP_TAPCELL_ROW_7_28
*130 TAP_TAPCELL_ROW_8_29
*131 TAP_TAPCELL_ROW_9_30
*132 TAP_TAPCELL_ROW_9_31
*133 _04_
*134 _05_
*135 _06_
*136 _07_
*137 _08_
*138 _09_
*139 _10_
*140 _11_
*141 input1
*142 input2
*143 input3
*144 input4
*145 output5
*146 output6
*147 output7
*148 output8

*PORTS
A[0] I
A[1] I
B[0] I
B[1] I
P[0] O
P[1] O
P[2] O
P[3] O

*D_NET *1 0.000592953
*CONN
*P A[0] I
*I *141:A I *D sky130_fd_sc_hd__buf_1
*CAP
1 A[0] 0.000296476
2 *141:A 0.000296476
3 *141:A P[3] 0
*RES
1 A[0] *141:A 6.37677 
*END

*D_NET *2 0.000438671
*CONN
*P A[1] I
*I *142:A I *D sky130_fd_sc_hd__buf_1
*CAP
1 A[1] 0.000180814
2 *142:A 0.000180814
3 *142:A P[3] 7.70436e-05
*RES
1 A[1] *142:A 5.10177 
*END

*D_NET *3 0.000596834
*CONN
*P B[0] I
*I *143:A I *D sky130_fd_sc_hd__dlymetal6s2s_1
*CAP
1 B[0] 0.000284164
2 *143:A 0.000284164
3 *143:A *144:A 2.85068e-05
*RES
1 B[0] *143:A 7.3443 
*END

*D_NET *4 0.000499847
*CONN
*P B[1] I
*I *144:A I *D sky130_fd_sc_hd__buf_1
*CAP
1 B[1] 0.000219965
2 *144:A 0.000219965
3 *144:A P[1] 3.14094e-05
4 *143:A *144:A 2.85068e-05
*RES
1 B[1] *144:A 5.35677 
*END

*D_NET *5 0.000876668
*CONN
*P P[0] O
*I *145:X O *D sky130_fd_sc_hd__buf_2
*CAP
1 P[0] 0.000438334
2 *145:X 0.000438334
*RES
1 *145:X P[0] 10.53 
*END

*D_NET *6 0.000658473
*CONN
*P P[1] O
*I *146:X O *D sky130_fd_sc_hd__buf_2
*CAP
1 P[1] 0.000313532
2 *146:X 0.000313532
3 *144:A P[1] 3.14094e-05
*RES
1 *146:X P[1] 7.1793 
*END

*D_NET *7 0.000894056
*CONN
*P P[2] O
*I *147:X O *D sky130_fd_sc_hd__buf_2
*CAP
1 P[2] 0.000447028
2 *147:X 0.000447028
*RES
1 *147:X P[2] 11.55 
*END

*D_NET *8 0.000465531
*CONN
*P P[3] O
*I *148:X O *D sky130_fd_sc_hd__buf_2
*CAP
1 P[3] 0.000188388
2 *148:X 0.000188388
3 P[3] *148:A 1.17114e-05
4 *141:A P[3] 0
5 *142:A P[3] 7.70436e-05
*RES
1 *148:X P[3] 4.90503 
*END

*D_NET *11 0.000987568
*CONN
*I *138:B1 I *D sky130_fd_sc_hd__o31a_1
*I *134:X O *D sky130_fd_sc_hd__mux2_1
*CAP
1 *138:B1 0.000396193
2 *134:X 0.000396193
3 *138:B1 *138:A1 4.70343e-05
4 *138:B1 *17:17 0.000148148
*RES
1 *134:X *138:B1 12.825 
*END

*D_NET *12 0.000331321
*CONN
*I *138:A1 I *D sky130_fd_sc_hd__o31a_1
*I *135:X O *D sky130_fd_sc_hd__and2b_1
*CAP
1 *138:A1 0.000126785
2 *135:X 0.000126785
3 *138:A1 *135:A_N 0
4 *138:A1 *17:17 3.07153e-05
5 *138:B1 *138:A1 4.70343e-05
*RES
1 *135:X *138:A1 9.375 
*END

*D_NET *13 0.00158023
*CONN
*I *138:A2 I *D sky130_fd_sc_hd__o31a_1
*I *139:A1 I *D sky130_fd_sc_hd__o211a_1
*I *136:X O *D sky130_fd_sc_hd__and2b_1
*CAP
1 *138:A2 0
2 *139:A1 0.000506842
3 *136:X 9.13664e-05
4 *13:6 0.000598209
5 *139:A1 *146:A 5.72004e-05
6 *139:A1 *147:A 0.000123955
7 *13:6 *18:25 0.000202662
*RES
1 *136:X *13:6 3.43 
2 *13:6 *139:A1 13.865 
3 *13:6 *138:A2 1.6 
*END

*D_NET *14 0.00235395
*CONN
*I *139:A2 I *D sky130_fd_sc_hd__o211a_1
*I *138:A3 I *D sky130_fd_sc_hd__o31a_1
*I *137:Y O *D sky130_fd_sc_hd__nand2_1
*CAP
1 *139:A2 0.000138129
2 *138:A3 0.000355441
3 *137:Y 0.000305807
4 *14:6 0.000799377
5 *138:A3 *18:8 0
6 *138:A3 *18:25 0.000295445
7 *139:A2 *139:B1 0.000298442
8 *14:6 *137:A 0.000127476
9 *14:6 *137:B 1.33293e-05
10 *14:6 *18:25 2.05056e-05
*RES
1 *137:Y *14:6 5.5 
2 *14:6 *138:A3 6.55 
3 *14:6 *139:A2 9.02 
*END

*D_NET *15 0.0046887
*CONN
*I *140:B I *D sky130_fd_sc_hd__and4_1
*I *134:A0 I *D sky130_fd_sc_hd__mux2_1
*I *137:A I *D sky130_fd_sc_hd__nand2_1
*I *133:B I *D sky130_fd_sc_hd__xnor2_1
*I *141:X O *D sky130_fd_sc_hd__buf_1
*CAP
1 *140:B 1.69128e-05
2 *134:A0 0
3 *137:A 0.000132228
4 *133:B 0.00035105
5 *141:X 0.000617922
6 *15:18 0.000500384
7 *15:14 9.49927e-05
8 *15:12 0.000712721
9 *133:B *133:A 0.000681366
10 *137:A *137:B 0.000278117
11 *137:A *139:C1 2.14129e-05
12 *137:A *140:C 0.000141606
13 *137:A *16:20 9.71067e-05
14 *140:B *140:C 4.82919e-05
15 *15:14 *140:A 0.000214272
16 *15:14 *140:C 0.000469632
17 *15:14 *17:30 4.60584e-05
18 *15:18 *140:C 8.65961e-05
19 *15:18 *17:30 5.05521e-05
20 *14:6 *137:A 0.000127476
*RES
1 *141:X *15:12 12.86 
2 *15:12 *15:14 4.245 
3 *15:14 *15:18 2.795 
4 *15:18 *133:B 12.12 
5 *15:18 *137:A 8.355 
6 *15:14 *134:A0 1.6 
7 *15:12 *140:B 2.05 
*END

*D_NET *16 0.00429658
*CONN
*I *140:D I *D sky130_fd_sc_hd__and4_1
*I *134:A1 I *D sky130_fd_sc_hd__mux2_1
*I *139:C1 I *D sky130_fd_sc_hd__o211a_1
*I *137:B I *D sky130_fd_sc_hd__nand2_1
*I *142:X O *D sky130_fd_sc_hd__buf_1
*CAP
1 *140:D 8.61904e-05
2 *134:A1 0
3 *139:C1 0.000197674
4 *137:B 0.000191436
5 *142:X 0.000699623
6 *16:20 0.000495328
7 *16:14 0.000373522
8 *16:12 0.00105312
9 *139:C1 *139:B1 0.00019194
10 *139:C1 *140:C 1.1561e-05
11 *140:D *140:C 7.66083e-05
12 *16:14 *140:C 0.000421345
13 *16:20 *140:C 8.8266e-05
14 *137:A *137:B 0.000278117
15 *137:A *139:C1 2.14129e-05
16 *137:A *16:20 9.71067e-05
17 *14:6 *137:B 1.33293e-05
*RES
1 *142:X *16:12 14.135 
2 *16:12 *16:14 3.9 
3 *16:14 *16:20 3.92 
4 *16:20 *137:B 7.17 
5 *16:20 *139:C1 8.04 
6 *16:14 *134:A1 1.6 
7 *16:12 *140:D 2.74 
*END

*D_NET *17 0.00454315
*CONN
*I *136:A_N I *D sky130_fd_sc_hd__and2b_1
*I *140:A I *D sky130_fd_sc_hd__and4_1
*I *134:S I *D sky130_fd_sc_hd__mux2_1
*I *133:A I *D sky130_fd_sc_hd__xnor2_1
*I *135:B I *D sky130_fd_sc_hd__and2b_1
*I *143:X O *D sky130_fd_sc_hd__dlymetal6s2s_1
*CAP
1 *136:A_N 8.26195e-05
2 *140:A 0.000161141
3 *134:S 2.08101e-05
4 *133:A 0.000304353
5 *135:B 0
6 *143:X 0.000371705
7 *17:30 0.000283487
8 *17:17 0.000842997
9 *17:10 0.000602327
10 *17:6 0.000619544
11 *136:A_N *135:A_N 6.74079e-05
12 *17:17 *140:C 3.64998e-06
13 *17:30 *140:C 1.19928e-05
14 *133:B *133:A 0.000681366
15 *138:A1 *17:17 3.07153e-05
16 *138:B1 *17:17 0.000148148
17 *15:14 *140:A 0.000214272
18 *15:14 *17:30 4.60584e-05
19 *15:18 *17:30 5.05521e-05
*RES
1 *143:X *17:6 7.225 
2 *17:6 *17:10 2.445 
3 *17:10 *135:B 1.6 
4 *17:10 *17:17 7.005 
5 *17:17 *133:A 13.355 
6 *17:17 *17:30 1.83 
7 *17:30 *134:S 1.96 
8 *17:30 *140:A 4.81 
9 *17:6 *136:A_N 7.235 
*END

*D_NET *18 0.00505709
*CONN
*I *136:B I *D sky130_fd_sc_hd__and2b_1
*I *139:B1 I *D sky130_fd_sc_hd__o211a_1
*I *140:C I *D sky130_fd_sc_hd__and4_1
*I *135:A_N I *D sky130_fd_sc_hd__and2b_1
*I *144:X O *D sky130_fd_sc_hd__buf_1
*CAP
1 *136:B 0
2 *139:B1 0.000101919
3 *140:C 0.00021138
4 *135:A_N 0.000126373
5 *144:X 0.000512288
6 *18:25 0.0006511
7 *18:8 0.000484984
8 *18:6 0.000533098
9 *136:A_N *135:A_N 6.74079e-05
10 *137:A *140:C 0.000141606
11 *138:A1 *135:A_N 0
12 *138:A3 *18:8 0
13 *138:A3 *18:25 0.000295445
14 *139:A2 *139:B1 0.000298442
15 *139:C1 *139:B1 0.00019194
16 *139:C1 *140:C 1.1561e-05
17 *140:B *140:C 4.82919e-05
18 *140:D *140:C 7.66083e-05
19 *13:6 *18:25 0.000202662
20 *14:6 *18:25 2.05056e-05
21 *15:14 *140:C 0.000469632
22 *15:18 *140:C 8.65961e-05
23 *16:14 *140:C 0.000421345
24 *16:20 *140:C 8.8266e-05
25 *17:17 *140:C 3.64998e-06
26 *17:30 *140:C 1.19928e-05
*RES
1 *144:X *18:6 8.95 
2 *18:6 *18:8 0.36 
3 *18:8 *135:A_N 8.285 
4 *18:8 *18:25 9.35 
5 *18:25 *140:C 11.46 
6 *18:25 *139:B1 7.53 
7 *18:6 *136:B 1.6 
*END

*D_NET *19 0.000305324
*CONN
*I *145:A I *D sky130_fd_sc_hd__buf_2
*I *133:Y O *D sky130_fd_sc_hd__xnor2_1
*CAP
1 *145:A 0.000152662
2 *133:Y 0.000152662
*RES
1 *133:Y *145:A 9.54 
*END

*D_NET *20 0.00128731
*CONN
*I *146:A I *D sky130_fd_sc_hd__buf_2
*I *138:X O *D sky130_fd_sc_hd__o31a_1
*CAP
1 *146:A 0.000615057
2 *138:X 0.000615057
3 *139:A1 *146:A 5.72004e-05
*RES
1 *138:X *146:A 16.875 
*END

*D_NET *21 0.000825707
*CONN
*I *147:A I *D sky130_fd_sc_hd__buf_2
*I *139:X O *D sky130_fd_sc_hd__o211a_1
*CAP
1 *147:A 0.000350876
2 *139:X 0.000350876
3 *139:A1 *147:A 0.000123955
*RES
1 *139:X *147:A 12.9 
*END

*D_NET *22 0.00082846
*CONN
*I *148:A I *D sky130_fd_sc_hd__buf_2
*I *140:X O *D sky130_fd_sc_hd__and4_1
*CAP
1 *148:A 0.000408374
2 *140:X 0.000408374
3 P[3] *148:A 1.17114e-05
*RES
1 *140:X *148:A 12.135 
*END
