*SPEF "ieee 1481-1999"
*DESIGN "mult4_SARSA_WInd_e9_SARSA_RUIDO_e9_SARSA_RUIDO_e9_SARSA_RUIDO_e9"
*DATE "18:43:30 Tuesday September 16, 2025"
*VENDOR "The OpenROAD Project"
*PROGRAM "OpenROAD"
*VERSION "edf00dff99f6c40d67a30c0e22a8191c5d2ed9d6"
*DESIGN_FLOW "NAME_SCOPE LOCAL" "PIN_CAP NONE"
*DIVIDER /
*DELIMITER :
*BUS_DELIMITER []
*T_UNIT 1 NS
*C_UNIT 1 PF
*R_UNIT 1 OHM
*L_UNIT 1 HENRY

*NAME_MAP
*1 A[0]
*2 A[1]
*3 A[2]
*4 A[3]
*5 B[0]
*6 B[1]
*7 B[2]
*8 B[3]
*9 P[0]
*10 P[1]
*11 P[2]
*12 P[3]
*13 P[4]
*14 P[5]
*15 P[6]
*16 P[7]
*19 _00_
*20 _01_
*21 _02_
*22 _03_
*23 _04_
*24 _05_
*25 _06_
*26 _07_
*27 _08_
*28 _09_
*29 _10_
*30 _11_
*31 _12_
*32 _13_
*33 _14_
*34 _15_
*35 _16_
*36 _17_
*37 _18_
*38 _19_
*39 _20_
*40 _21_
*41 _22_
*42 _23_
*43 _24_
*44 _25_
*45 _26_
*46 _27_
*47 _28_
*48 _29_
*49 _30_
*50 _31_
*51 _32_
*52 _33_
*53 _34_
*54 _35_
*55 _36_
*56 _37_
*57 _38_
*58 _39_
*59 _40_
*60 _41_
*61 _42_
*62 _43_
*63 _44_
*64 net1
*65 net10
*66 net11
*67 net12
*68 net13
*69 net14
*70 net15
*71 net16
*72 net2
*73 net3
*74 net4
*75 net5
*76 net6
*77 net7
*78 net8
*79 net9
*80 FILLER_0_27
*81 FILLER_0_3
*82 FILLER_0_43
*83 FILLER_0_55
*84 FILLER_0_60
*85 FILLER_0_70
*86 FILLER_0_78
*87 FILLER_1_15
*88 FILLER_1_24
*89 FILLER_1_3
*90 FILLER_1_39
*91 FILLER_1_54
*92 FILLER_1_57
*93 FILLER_1_66
*94 FILLER_1_76
*95 FILLER_2_12
*96 FILLER_2_16
*97 FILLER_2_22
*98 FILLER_2_29
*99 FILLER_2_37
*100 FILLER_2_47
*101 FILLER_2_65
*102 FILLER_2_77
*103 FILLER_3_21
*104 FILLER_3_3
*105 FILLER_3_30
*106 FILLER_3_48
*107 FILLER_3_65
*108 FILLER_3_8
*109 FILLER_4_12
*110 FILLER_4_25
*111 FILLER_4_29
*112 FILLER_4_3
*113 FILLER_4_35
*114 FILLER_4_44
*115 FILLER_4_56
*116 FILLER_4_60
*117 FILLER_4_65
*118 FILLER_4_73
*119 FILLER_4_79
*120 FILLER_5_17
*121 FILLER_5_29
*122 FILLER_5_37
*123 FILLER_5_49
*124 FILLER_5_57
*125 FILLER_5_67
*126 FILLER_5_75
*127 FILLER_6_10
*128 FILLER_6_29
*129 FILLER_6_37
*130 FILLER_6_6
*131 FILLER_6_65
*132 FILLER_6_69
*133 FILLER_7_15
*134 FILLER_7_3
*135 FILLER_7_40
*136 FILLER_7_46
*137 FILLER_7_53
*138 FILLER_7_57
*139 FILLER_7_67
*140 FILLER_7_79
*141 FILLER_8_18
*142 FILLER_8_26
*143 FILLER_8_29
*144 FILLER_8_3
*145 FILLER_8_41
*146 FILLER_8_53
*147 FILLER_8_59
*148 FILLER_8_67
*149 FILLER_8_79
*150 FILLER_9_21
*151 FILLER_9_27
*152 FILLER_9_29
*153 FILLER_9_41
*154 FILLER_9_53
*155 FILLER_9_57
*156 FILLER_9_69
*157 FILLER_9_7
*158 PHY_EDGE_ROW_0_Left_10
*159 PHY_EDGE_ROW_0_Right_0
*160 PHY_EDGE_ROW_1_Left_11
*161 PHY_EDGE_ROW_1_Right_1
*162 PHY_EDGE_ROW_2_Left_12
*163 PHY_EDGE_ROW_2_Right_2
*164 PHY_EDGE_ROW_3_Left_13
*165 PHY_EDGE_ROW_3_Right_3
*166 PHY_EDGE_ROW_4_Left_14
*167 PHY_EDGE_ROW_4_Right_4
*168 PHY_EDGE_ROW_5_Left_15
*169 PHY_EDGE_ROW_5_Right_5
*170 PHY_EDGE_ROW_6_Left_16
*171 PHY_EDGE_ROW_6_Right_6
*172 PHY_EDGE_ROW_7_Left_17
*173 PHY_EDGE_ROW_7_Right_7
*174 PHY_EDGE_ROW_8_Left_18
*175 PHY_EDGE_ROW_8_Right_8
*176 PHY_EDGE_ROW_9_Left_19
*177 PHY_EDGE_ROW_9_Right_9
*178 TAP_TAPCELL_ROW_0_20
*179 TAP_TAPCELL_ROW_0_21
*180 TAP_TAPCELL_ROW_1_22
*181 TAP_TAPCELL_ROW_2_23
*182 TAP_TAPCELL_ROW_3_24
*183 TAP_TAPCELL_ROW_4_25
*184 TAP_TAPCELL_ROW_5_26
*185 TAP_TAPCELL_ROW_6_27
*186 TAP_TAPCELL_ROW_7_28
*187 TAP_TAPCELL_ROW_8_29
*188 TAP_TAPCELL_ROW_9_30
*189 TAP_TAPCELL_ROW_9_31
*190 _45_
*191 _46_
*192 _47_
*193 _48_
*194 _49_
*195 _50_
*196 _51_
*197 _52_
*198 _53_
*199 _54_
*200 _55_
*201 _56_
*202 _57_
*203 _58_
*204 _59_
*205 _60_
*206 _61_
*207 _62_
*208 _63_
*209 _64_
*210 _65_
*211 _66_
*212 _67_
*213 _68_
*214 _69_
*215 _70_
*216 _71_
*217 _72_
*218 _73_
*219 _74_
*220 _75_
*221 _76_
*222 _77_
*223 _78_
*224 _79_
*225 _80_
*226 _81_
*227 _82_
*228 _83_
*229 _84_
*230 _85_
*231 _86_
*232 _87_
*233 _88_
*234 _89_
*235 _90_
*236 _91_
*237 _92_
*238 _93_
*239 _94_
*240 _95_
*241 _96_
*242 _97_
*243 input1
*244 input2
*245 input3
*246 input4
*247 input5
*248 input6
*249 input7
*250 input8
*251 output10
*252 output11
*253 output12
*254 output13
*255 output14
*256 output15
*257 output16
*258 output9

*PORTS
A[0] I
A[1] I
A[2] I
A[3] I
B[0] I
B[1] I
B[2] I
B[3] I
P[0] O
P[1] O
P[2] O
P[3] O
P[4] O
P[5] O
P[6] O
P[7] O

*D_NET *1 0.000862904
*CONN
*P A[0] I
*I *243:A I *D sky130_fd_sc_hd__dlymetal6s2s_1
*CAP
1 A[0] 0.00038316
2 *243:A 0.00038316
3 *243:A *244:A 4.82919e-05
4 *243:A *72:8 4.82919e-05
*RES
1 A[0] *243:A 10.35 
*END

*D_NET *2 0.00133684
*CONN
*P A[1] I
*I *244:A I *D sky130_fd_sc_hd__buf_1
*CAP
1 A[1] 0.000549303
2 *244:A 0.000549303
3 *244:A *248:A 0
4 *244:A *64:8 0.000124895
5 *244:A *64:12 2.97004e-06
6 *244:A *72:8 2.30292e-05
7 *244:A *72:21 3.90495e-05
8 *243:A *244:A 4.82919e-05
*RES
1 A[1] *244:A 13.215 
*END

*D_NET *3 0.000598753
*CONN
*P A[2] I
*I *245:A I *D sky130_fd_sc_hd__dlymetal6s2s_1
*CAP
1 A[2] 0.000273878
2 *245:A 0.000273878
3 *245:A *246:A 2.85068e-05
4 *245:A *249:A 2.24901e-05
5 *245:A *74:12 0
*RES
1 A[2] *245:A 7.3443 
*END

*D_NET *4 0.000506521
*CONN
*P A[3] I
*I *246:A I *D sky130_fd_sc_hd__buf_1
*CAP
1 A[3] 0.000234214
2 *246:A 0.000234214
3 *246:A P[7] 0
4 *246:A *237:A 0
5 *246:A *249:A 0
6 *246:A *74:12 9.58678e-06
7 *245:A *246:A 2.85068e-05
*RES
1 A[3] *246:A 5.35677 
*END

*D_NET *5 0.00210631
*CONN
*P B[0] I
*I *247:A I *D sky130_fd_sc_hd__buf_1
*CAP
1 B[0] 0.000723951
2 *247:A 0.000723951
3 *247:A P[0] 4.82919e-05
4 *247:A P[1] 0.000161675
5 *247:A *190:A 0
6 *247:A *190:B 0.000179406
7 *247:A *258:A 8.8266e-05
8 *247:A *19:10 8.65961e-05
9 *247:A *72:36 2.75229e-05
10 *247:A *75:6 3.99879e-05
11 *247:A *75:12 2.66586e-05
*RES
1 B[0] *247:A 17.7 
*END

*D_NET *6 0.00134239
*CONN
*P B[1] I
*I *248:A I *D sky130_fd_sc_hd__dlymetal6s2s_1
*CAP
1 B[1] 0.000418984
2 *248:A 0.000418984
3 *248:A P[1] 0
4 *248:A *192:A 0.00012657
5 *248:A *192:B 5.16348e-05
6 *248:A *64:47 1.08758e-05
7 *248:A *64:64 8.23457e-05
8 *248:A *72:36 0.000232999
9 *244:A *248:A 0
*RES
1 B[1] *248:A 12.075 
*END

*D_NET *7 0.00124802
*CONN
*P B[2] I
*I *249:A I *D sky130_fd_sc_hd__buf_1
*CAP
1 B[2] 0.00037013
2 *249:A 0.00037013
3 *249:A *224:C1 0.000198945
4 *249:A *235:A 0.000162311
5 *249:A *235:C 0
6 *249:A *250:A 2.85068e-05
7 *249:A *27:29 4.82919e-05
8 *249:A *73:14 0
9 *249:A *74:12 1.47256e-05
10 *249:A *78:71 3.24882e-05
11 *245:A *249:A 2.24901e-05
12 *246:A *249:A 0
*RES
1 B[2] *249:A 10.6754 
*END

*D_NET *8 0.000618625
*CONN
*P B[3] I
*I *250:A I *D sky130_fd_sc_hd__clkbuf_2
*CAP
1 B[3] 0.000295059
2 *250:A 0.000295059
3 *249:A *250:A 2.85068e-05
*RES
1 B[3] *250:A 7.4343 
*END

*D_NET *9 0.000832715
*CONN
*P P[0] O
*I *258:X O *D sky130_fd_sc_hd__buf_2
*CAP
1 P[0] 0.000392211
2 *258:X 0.000392211
3 *247:A P[0] 4.82919e-05
*RES
1 *258:X P[0] 10.395 
*END

*D_NET *10 0.00153139
*CONN
*P P[1] O
*I *251:X O *D sky130_fd_sc_hd__buf_2
*CAP
1 P[1] 0.000622187
2 *251:X 0.000622187
3 P[1] *192:A 1.08758e-05
4 P[1] *192:B 0
5 P[1] *72:36 7.04135e-05
6 P[1] *76:6 4.40506e-05
7 *247:A P[1] 0.000161675
8 *248:A P[1] 0
*RES
1 *251:X P[1] 13.29 
*END

*D_NET *11 0.000462236
*CONN
*P P[2] O
*I *252:X O *D sky130_fd_sc_hd__buf_2
*CAP
1 P[2] 0.000231118
2 *252:X 0.000231118
3 P[2] *200:B 0
*RES
1 *252:X P[2] 4.90503 
*END

*D_NET *12 0.000561799
*CONN
*P P[3] O
*I *253:X O *D sky130_fd_sc_hd__buf_2
*CAP
1 P[3] 0.000203382
2 *253:X 0.000203382
3 P[3] P[4] 9.25475e-05
4 P[3] *253:A 6.24871e-05
*RES
1 *253:X P[3] 5.41503 
*END

*D_NET *13 0.000460116
*CONN
*P P[4] O
*I *254:X O *D sky130_fd_sc_hd__buf_2
*CAP
1 P[4] 0.000183784
2 *254:X 0.000183784
3 P[4] P[5] 0
4 P[4] *47:21 0
5 P[3] P[4] 9.25475e-05
*RES
1 *254:X P[4] 4.90503 
*END

*D_NET *14 0.000586635
*CONN
*P P[5] O
*I *255:X O *D sky130_fd_sc_hd__buf_2
*CAP
1 P[5] 0.000293318
2 *255:X 0.000293318
3 P[4] P[5] 0
*RES
1 *255:X P[5] 5.92503 
*END

*D_NET *15 0.00051686
*CONN
*P P[6] O
*I *256:X O *D sky130_fd_sc_hd__buf_2
*CAP
1 P[6] 0.000220596
2 *256:X 0.000220596
3 P[6] P[7] 7.56675e-05
*RES
1 *256:X P[6] 5.5835 
*END

*D_NET *16 0.00146947
*CONN
*P P[7] O
*I *257:X O *D sky130_fd_sc_hd__buf_2
*CAP
1 P[7] 0.000676635
2 *257:X 0.000676635
3 P[7] *236:A2 0
4 P[7] *238:A 0
5 P[7] *257:A 4.05358e-05
6 P[6] P[7] 7.56675e-05
7 *246:A P[7] 0
*RES
1 *257:X P[7] 6.79903 
*END

*D_NET *19 0.00150378
*CONN
*I *197:C I *D sky130_fd_sc_hd__and4_1
*I *198:A3 I *D sky130_fd_sc_hd__a31o_1
*I *191:A I *D sky130_fd_sc_hd__inv_2
*I *190:Y O *D sky130_fd_sc_hd__nand2_1
*CAP
1 *197:C 0
2 *198:A3 8.34868e-05
3 *191:A 0
4 *190:Y 0.000102888
5 *19:23 0.000358196
6 *19:10 0.000377597
7 *198:A3 *197:A 1.52352e-05
8 *198:A3 *197:B 0.000229418
9 *198:A3 *197:D 0.000198939
10 *19:23 *197:D 2.05056e-05
11 *19:23 *200:A 3.09164e-05
12 *19:23 *35:10 0
13 *247:A *19:10 8.65961e-05
*RES
1 *190:Y *19:10 5.01 
2 *19:10 *191:A 3.6 
3 *19:10 *19:23 5.36 
4 *19:23 *198:A3 4.495 
5 *19:23 *197:C 1.6 
*END

*D_NET *20 0.0017792
*CONN
*I *209:C I *D sky130_fd_sc_hd__nand4_1
*I *193:A_N I *D sky130_fd_sc_hd__and2b_1
*I *212:B1 I *D sky130_fd_sc_hd__a31o_1
*I *192:X O *D sky130_fd_sc_hd__and4_1
*CAP
1 *209:C 4.78586e-05
2 *193:A_N 0
3 *212:B1 7.36051e-05
4 *192:X 0.00016021
5 *20:25 7.24867e-05
6 *20:12 0.000258443
7 *209:C *209:D 0.000224692
8 *209:C *251:A 2.05056e-05
9 *209:C *78:42 0.000274138
10 *212:B1 *34:10 5.33993e-05
11 *212:B1 *34:19 5.14863e-05
12 *212:B1 *64:25 4.69992e-05
13 *212:B1 *78:42 8.49205e-05
14 *20:12 *192:B 8.8266e-05
15 *20:12 *34:27 1.52184e-05
16 *20:12 *38:22 0
17 *20:12 *64:12 4.83508e-05
18 *20:12 *76:21 0
19 *20:12 *76:30 0
20 *20:12 *76:58 0
21 *20:12 *78:42 1.39456e-05
22 *20:25 *209:D 4.82919e-05
23 *20:25 *34:19 7.40446e-05
24 *20:25 *78:42 0.000122337
*RES
1 *192:X *20:12 8.285 
2 *20:12 *212:B1 3.5575 
3 *20:12 *20:25 1.14 
4 *20:25 *193:A_N 1.6 
5 *20:25 *209:C 4.12 
*END

*D_NET *21 0.00189386
*CONN
*I *220:A1 I *D sky130_fd_sc_hd__a21o_1
*I *204:A I *D sky130_fd_sc_hd__or4b_1
*I *194:X O *D sky130_fd_sc_hd__and2_1
*CAP
1 *220:A1 0.000267589
2 *204:A 0.000179511
3 *194:X 1.37502e-05
4 *21:6 0.00046085
5 *204:A *38:22 8.80293e-06
6 *204:A *75:12 9.09788e-06
7 *204:A *75:31 6.28251e-05
8 *220:A1 *200:A 0.000238137
9 *220:A1 *205:B2 3.6355e-05
10 *220:A1 *219:A1 4.82919e-05
11 *220:A1 *219:B1 1.08758e-05
12 *220:A1 *35:10 3.86529e-05
13 *220:A1 *35:21 1.52184e-05
14 *220:A1 *38:22 0.000322365
15 *220:A1 *38:37 2.45351e-05
16 *220:A1 *46:10 0
17 *21:6 *195:B 4.89295e-05
18 *21:6 *205:B2 8.60677e-05
19 *21:6 *38:22 2.20014e-05
*RES
1 *194:X *21:6 2.395 
2 *21:6 *204:A 8.36 
3 *21:6 *220:A1 12.35 
*END

*D_NET *22 0.00396715
*CONN
*I *200:A I *D sky130_fd_sc_hd__xnor2_1
*I *205:B2 I *D sky130_fd_sc_hd__a2bb2o_1
*I *195:Y O *D sky130_fd_sc_hd__nand2_1
*CAP
1 *200:A 0.000614844
2 *205:B2 0.000547665
3 *195:Y 0
4 *22:4 0.00116251
5 *200:A *199:A_N 2.75145e-05
6 *200:A *252:A 0
7 *200:A *24:6 6.77501e-05
8 *200:A *25:10 0.000313846
9 *200:A *35:10 0
10 *200:A *46:10 8.8266e-05
11 *205:B2 *195:B 1.48873e-05
12 *205:B2 *204:D_N 3.59921e-05
13 *205:B2 *29:12 9.14049e-05
14 *205:B2 *37:12 8.35124e-05
15 *205:B2 *38:22 0.000419704
16 *205:B2 *76:58 4.43871e-06
17 *205:B2 *76:77 0.000103339
18 *220:A1 *200:A 0.000238137
19 *220:A1 *205:B2 3.6355e-05
20 *19:23 *200:A 3.09164e-05
21 *21:6 *205:B2 8.60677e-05
*RES
1 *195:Y *22:4 1.6 
2 *22:4 *205:B2 14.435 
3 *22:4 *200:A 15.92 
*END

*D_NET *23 0.00472024
*CONN
*I *205:A1_N I *D sky130_fd_sc_hd__a2bb2o_1
*I *204:B I *D sky130_fd_sc_hd__or4b_1
*I *198:B1 I *D sky130_fd_sc_hd__a31o_1
*I *197:D I *D sky130_fd_sc_hd__and4_1
*I *196:X O *D sky130_fd_sc_hd__and2_1
*CAP
1 *205:A1_N 5.80634e-05
2 *204:B 3.41697e-05
3 *198:B1 0.000128755
4 *197:D 0.000268665
5 *196:X 0.00042385
6 *23:40 0.00015364
7 *23:10 0.000509991
8 *23:8 0.000597828
9 *197:D *197:A 2.10152e-05
10 *197:D *25:10 0.000199833
11 *197:D *75:12 1.83975e-05
12 *198:B1 *251:A 8.35068e-05
13 *198:B1 *35:10 4.30228e-05
14 *198:B1 *72:43 0.000209672
15 *204:B *37:12 4.77757e-05
16 *205:A1_N *204:C 7.40446e-05
17 *205:A1_N *205:A2_N 4.77719e-05
18 *205:A1_N *28:10 2.23407e-05
19 *205:A1_N *37:12 0.000121817
20 *23:8 *203:A 9.27255e-06
21 *23:8 *203:B 8.40269e-05
22 *23:8 *29:12 0.000422233
23 *23:8 *73:39 0.00049205
24 *23:8 *75:31 0.000120655
25 *23:8 *75:39 0.000154828
26 *23:10 *28:10 8.17718e-05
27 *23:10 *38:22 2.68016e-05
28 *23:40 *28:10 4.50017e-05
29 *198:A3 *197:D 0.000198939
30 *19:23 *197:D 2.05056e-05
*RES
1 *196:X *23:8 13.71 
2 *23:8 *23:10 2.145 
3 *23:10 *197:D 8.07 
4 *23:10 *198:B1 6.84 
5 *23:8 *23:40 1.125 
6 *23:40 *204:B 4.05 
7 *23:40 *205:A1_N 5.355 
*END

*D_NET *24 0.00105636
*CONN
*I *199:A_N I *D sky130_fd_sc_hd__and2b_1
*I *220:B1 I *D sky130_fd_sc_hd__a21o_1
*I *197:X O *D sky130_fd_sc_hd__and4_1
*CAP
1 *199:A_N 0.000145396
2 *220:B1 2.08101e-05
3 *197:X 0.00010524
4 *24:6 0.000271446
5 *199:A_N *199:B 0
6 *199:A_N *200:B 0
7 *24:6 *25:10 0.000275542
8 *24:6 *35:10 0.000142661
9 *200:A *199:A_N 2.75145e-05
10 *200:A *24:6 6.77501e-05
*RES
1 *197:X *24:6 5.155 
2 *24:6 *220:B1 1.96 
3 *24:6 *199:A_N 7.94 
*END

*D_NET *25 0.0018714
*CONN
*I *220:A2 I *D sky130_fd_sc_hd__a21o_1
*I *199:B I *D sky130_fd_sc_hd__and2b_1
*I *198:X O *D sky130_fd_sc_hd__a31o_1
*CAP
1 *220:A2 0
2 *199:B 0.00030103
3 *198:X 0.000118118
4 *25:10 0.000419147
5 *199:B *35:10 7.30547e-05
6 *25:10 *197:A 4.82919e-05
7 *25:10 *35:10 0.000122543
8 *197:D *25:10 0.000199833
9 *199:A_N *199:B 0
10 *200:A *25:10 0.000313846
11 *24:6 *25:10 0.000275542
*RES
1 *198:X *25:10 7 
2 *25:10 *199:B 10.01 
3 *25:10 *220:A2 1.6 
*END

*D_NET *26 0.000260776
*CONN
*I *200:B I *D sky130_fd_sc_hd__xnor2_1
*I *199:X O *D sky130_fd_sc_hd__and2b_1
*CAP
1 *200:B 0.000130388
2 *199:X 0.000130388
3 P[2] *200:B 0
4 *199:A_N *200:B 0
*RES
1 *199:X *200:B 9.03 
*END

*D_NET *27 0.00366698
*CONN
*I *224:A1 I *D sky130_fd_sc_hd__o211a_1
*I *206:A_N I *D sky130_fd_sc_hd__nand3b_1
*I *207:B1_N I *D sky130_fd_sc_hd__a21bo_1
*I *239:A1 I *D sky130_fd_sc_hd__a21oi_1
*I *235:C I *D sky130_fd_sc_hd__and3_1
*I *201:Y O *D sky130_fd_sc_hd__nand2_1
*CAP
1 *224:A1 1.46201e-05
2 *206:A_N 0.000165686
3 *207:B1_N 0
4 *239:A1 0.000130659
5 *235:C 7.92261e-05
6 *201:Y 0
7 *27:50 0.000638262
8 *27:44 0.000533911
9 *27:29 0.000422439
10 *27:4 0.000324291
11 *206:A_N *206:C 0.000177568
12 *206:A_N *230:A2 4.66108e-05
13 *206:A_N *31:8 8.53113e-06
14 *224:A1 *223:A 0
15 *224:A1 *48:8 2.10489e-05
16 *235:C *235:A 5.28255e-05
17 *235:C *73:14 7.06865e-05
18 *239:A1 *237:A 0
19 *239:A1 *239:B1 7.34442e-05
20 *239:A1 *240:B1 5.39961e-05
21 *239:A1 *74:20 1.52184e-05
22 *239:A1 *77:8 0
23 *27:29 *201:A 0.000158066
24 *27:29 *210:C 2.10025e-05
25 *27:29 *224:B1 3.26889e-05
26 *27:29 *224:C1 9.79155e-05
27 *27:29 *235:A 0
28 *27:29 *73:21 2.16917e-05
29 *27:29 *74:20 1.08194e-05
30 *27:29 *77:8 9.30787e-05
31 *27:29 *78:71 0.000198945
32 *27:44 *223:A 1.47256e-05
33 *27:44 *48:8 1.85235e-05
34 *27:44 *78:71 1.61831e-05
35 *27:50 *223:A 1.03323e-05
36 *27:50 *223:B 6.97118e-05
37 *27:50 *48:8 2.59835e-05
38 *249:A *235:C 0
39 *249:A *27:29 4.82919e-05
*RES
1 *201:Y *27:4 1.6 
2 *27:4 *235:C 6.98 
3 *27:4 *27:29 9.4 
4 *27:29 *239:A1 8.195 
5 *27:29 *27:44 0.9675 
6 *27:44 *27:50 7.2075 
7 *27:50 *207:B1_N 1.6 
8 *27:50 *206:A_N 8.99 
9 *27:44 *224:A1 2.2375 
*END

*D_NET *28 0.00113496
*CONN
*I *204:C I *D sky130_fd_sc_hd__or4b_1
*I *205:A2_N I *D sky130_fd_sc_hd__a2bb2o_1
*I *202:Y O *D sky130_fd_sc_hd__nand2_1
*CAP
1 *204:C 6.36465e-05
2 *205:A2_N 1.82508e-05
3 *202:Y 0.000190623
4 *28:10 0.00027252
5 *204:C *204:D_N 8.60799e-05
6 *204:C *37:12 6.50242e-05
7 *205:A2_N *204:D_N 8.52845e-05
8 *205:A2_N *37:12 1.43396e-05
9 *28:10 *75:31 6.82603e-05
10 *28:10 *76:77 0
11 *205:A1_N *204:C 7.40446e-05
12 *205:A1_N *205:A2_N 4.77719e-05
13 *205:A1_N *28:10 2.23407e-05
14 *23:10 *28:10 8.17718e-05
15 *23:40 *28:10 4.50017e-05
*RES
1 *202:Y *28:10 9.275 
2 *28:10 *205:A2_N 2.395 
3 *28:10 *204:C 3.43 
*END

*D_NET *29 0.00189271
*CONN
*I *204:D_N I *D sky130_fd_sc_hd__or4b_1
*I *205:B1 I *D sky130_fd_sc_hd__a2bb2o_1
*I *203:X O *D sky130_fd_sc_hd__and2_1
*CAP
1 *204:D_N 0.000193694
2 *205:B1 0
3 *203:X 0.000372619
4 *29:12 0.000566313
5 *204:D_N *37:12 2.89202e-05
6 *29:12 *76:77 1.01661e-05
7 *204:C *204:D_N 8.60799e-05
8 *205:A2_N *204:D_N 8.52845e-05
9 *205:B2 *204:D_N 3.59921e-05
10 *205:B2 *29:12 9.14049e-05
11 *23:8 *29:12 0.000422233
*RES
1 *203:X *29:12 10.88 
2 *29:12 *205:B1 1.6 
3 *29:12 *204:D_N 5.29 
*END

*D_NET *30 0.00198932
*CONN
*I *230:A1 I *D sky130_fd_sc_hd__a21o_1
*I *229:A I *D sky130_fd_sc_hd__and3_1
*I *206:B I *D sky130_fd_sc_hd__nand3b_1
*I *207:A1 I *D sky130_fd_sc_hd__a21bo_1
*I *204:X O *D sky130_fd_sc_hd__or4b_1
*CAP
1 *230:A1 0.000264746
2 *229:A 0
3 *206:B 2.15187e-05
4 *207:A1 4.50604e-05
5 *204:X 0.000183283
6 *30:36 0.000314196
7 *30:25 0.000168388
8 *30:12 0.000325763
9 *206:B *230:A2 4.77719e-05
10 *207:A1 *207:A2 4.89295e-05
11 *230:A1 *229:C 4.77719e-05
12 *230:A1 *234:A2 0.000159394
13 *230:A1 *32:27 1.58506e-05
14 *230:A1 *53:23 4.18467e-05
15 *30:12 *31:8 0
16 *30:12 *33:10 6.4413e-05
17 *30:25 *206:C 7.54567e-05
18 *30:25 *31:8 1.22676e-05
19 *30:25 *32:27 7.39642e-05
20 *30:36 *229:C 1.43253e-05
21 *30:36 *230:A2 4.66108e-05
22 *30:36 *32:27 1.77665e-05
*RES
1 *204:X *30:12 8.81 
2 *30:12 *207:A1 2.395 
3 *30:12 *30:25 6.4 
4 *30:25 *206:B 2.05 
5 *30:25 *30:36 1.155 
6 *30:36 *229:A 1.6 
7 *30:36 *230:A1 9.35 
*END

*D_NET *31 0.000788221
*CONN
*I *206:C I *D sky130_fd_sc_hd__nand3b_1
*I *207:A2 I *D sky130_fd_sc_hd__a21bo_1
*I *205:X O *D sky130_fd_sc_hd__a2bb2o_1
*CAP
1 *206:C 9.16509e-05
2 *207:A2 4.61812e-05
3 *205:X 9.49021e-05
4 *31:8 0.000232734
5 *206:A_N *206:C 0.000177568
6 *206:A_N *31:8 8.53113e-06
7 *207:A1 *207:A2 4.89295e-05
8 *30:12 *31:8 0
9 *30:25 *206:C 7.54567e-05
10 *30:25 *31:8 1.22676e-05
*RES
1 *205:X *31:8 5.235 
2 *31:8 *207:A2 4.395 
3 *31:8 *206:C 6.195 
*END

*D_NET *32 0.00238351
*CONN
*I *216:A I *D sky130_fd_sc_hd__nand3_1
*I *215:A I *D sky130_fd_sc_hd__and3_1
*I *217:A1 I *D sky130_fd_sc_hd__a21oi_1
*I *229:B I *D sky130_fd_sc_hd__and3_1
*I *230:A2 I *D sky130_fd_sc_hd__a21o_1
*I *206:Y O *D sky130_fd_sc_hd__nand3b_1
*CAP
1 *216:A 3.37705e-05
2 *215:A 9.66596e-06
3 *217:A1 1.58461e-05
4 *229:B 0
5 *230:A2 0.000147875
6 *206:Y 0
7 *32:47 9.69314e-05
8 *32:36 0.000249094
9 *32:27 0.000334422
10 *32:4 0.000302544
11 *215:A *217:B1 9.72742e-06
12 *215:A *40:25 4.00541e-06
13 *216:A *216:B 0.000175971
14 *216:A *217:B1 5.70646e-05
15 *216:A *33:18 1.12578e-05
16 *216:A *40:25 9.68749e-05
17 *217:A1 *217:B1 5.4155e-06
18 *230:A2 *228:A 0
19 *230:A2 *229:C 0.000281012
20 *32:27 *229:C 3.26223e-06
21 *32:36 *229:C 7.73976e-06
22 *32:36 *33:18 4.82919e-05
23 *32:36 *54:10 2.11084e-05
24 *32:47 *216:B 9.53428e-06
25 *32:47 *217:B1 5.25548e-05
26 *32:47 *33:18 0.000160971
27 *206:A_N *230:A2 4.66108e-05
28 *206:B *230:A2 4.77719e-05
29 *230:A1 *32:27 1.58506e-05
30 *30:25 *32:27 7.39642e-05
31 *30:36 *230:A2 4.66108e-05
32 *30:36 *32:27 1.77665e-05
*RES
1 *206:Y *32:4 1.6 
2 *32:4 *230:A2 9.17 
3 *32:4 *32:27 6.265 
4 *32:27 *229:B 1.6 
5 *32:27 *32:36 3.135 
6 *32:36 *217:A1 1.96 
7 *32:36 *32:47 2.19 
8 *32:47 *215:A 1.96 
9 *32:47 *216:A 3.925 
*END

*D_NET *33 0.00188726
*CONN
*I *217:A2 I *D sky130_fd_sc_hd__a21oi_1
*I *215:B I *D sky130_fd_sc_hd__and3_1
*I *216:B I *D sky130_fd_sc_hd__nand3_1
*I *207:X O *D sky130_fd_sc_hd__a21bo_1
*CAP
1 *217:A2 4.7824e-05
2 *215:B 2.54774e-05
3 *216:B 9.98084e-05
4 *207:X 0.00033821
5 *33:18 0.000295469
6 *33:10 0.000556218
7 *216:B *40:25 2.71072e-05
8 *33:10 *43:16 2.67022e-05
9 *216:A *216:B 0.000175971
10 *216:A *33:18 1.12578e-05
11 *30:12 *33:10 6.4413e-05
12 *32:36 *33:18 4.82919e-05
13 *32:47 *216:B 9.53428e-06
14 *32:47 *33:18 0.000160971
*RES
1 *207:X *33:10 7.935 
2 *33:10 *33:18 4.985 
3 *33:18 *216:B 4.405 
4 *33:18 *215:B 2.05 
5 *33:10 *217:A2 4.215 
*END

*D_NET *34 0.00395999
*CONN
*I *209:D I *D sky130_fd_sc_hd__nand4_1
*I *226:A I *D sky130_fd_sc_hd__nand2_1
*I *225:A I *D sky130_fd_sc_hd__nor2_1
*I *227:A I *D sky130_fd_sc_hd__xor2_1
*I *212:A3 I *D sky130_fd_sc_hd__a31o_1
*I *208:Y O *D sky130_fd_sc_hd__nand4_2
*CAP
1 *209:D 5.97191e-05
2 *226:A 0
3 *225:A 0.000158529
4 *227:A 0
5 *212:A3 0
6 *208:Y 0.000350556
7 *34:42 0.000257684
8 *34:27 0.000763939
9 *34:19 0.000778045
10 *34:10 0.000404097
11 *209:D *251:A 4.99619e-05
12 *209:D *38:22 0.000151541
13 *225:A *225:B 2.5987e-05
14 *225:A *236:A1 7.68414e-06
15 *225:A *236:A2 1.92979e-05
16 *225:A *236:B1 1.83756e-05
17 *225:A *240:B1 2.66861e-05
18 *225:A *36:14 4.43871e-06
19 *34:10 *196:A 1.98869e-05
20 *34:10 *64:25 1.80102e-05
21 *34:19 *38:22 4.99619e-05
22 *34:27 *192:B 0
23 *34:27 *203:B 0
24 *34:27 *210:B 0
25 *34:27 *228:A 0
26 *34:27 *36:14 0
27 *34:27 *38:22 0
28 *34:27 *49:10 0.000102125
29 *34:27 *73:39 4.11194e-05
30 *34:27 *75:39 0
31 *34:27 *76:77 0
32 *34:27 *78:42 0
33 *34:42 *225:B 6.71367e-05
34 *34:42 *227:B 0.000104541
35 *34:42 *36:16 1.35397e-05
36 *209:C *209:D 0.000224692
37 *212:B1 *34:10 5.33993e-05
38 *212:B1 *34:19 5.14863e-05
39 *20:12 *34:27 1.52184e-05
40 *20:25 *209:D 4.82919e-05
41 *20:25 *34:19 7.40446e-05
*RES
1 *208:Y *34:10 6.22 
2 *34:10 *212:A3 1.6 
3 *34:10 *34:19 1.5 
4 *34:19 *34:27 14.5 
5 *34:27 *227:A 1.6 
6 *34:27 *34:42 2.7375 
7 *34:42 *225:A 8.3225 
8 *34:42 *226:A 1.6 
9 *34:19 *209:D 4.12 
*END

*D_NET *35 0.00346945
*CONN
*I *213:A I *D sky130_fd_sc_hd__nand3_1
*I *214:B1_N I *D sky130_fd_sc_hd__a21bo_1
*I *219:A1 I *D sky130_fd_sc_hd__a21o_1
*I *209:Y O *D sky130_fd_sc_hd__nand4_1
*CAP
1 *213:A 0.000146296
2 *214:B1_N 3.44213e-05
3 *219:A1 3.38648e-05
4 *209:Y 0.000761482
5 *35:21 0.000350313
6 *35:10 0.000964942
7 *213:A *213:B 8.03692e-05
8 *213:A *213:C 0
9 *213:A *219:B1 4.43871e-06
10 *213:A *43:16 3.45679e-05
11 *214:B1_N *37:12 8.65905e-05
12 *35:10 *197:A 0.000148796
13 *35:10 *198:A1 4.89295e-05
14 *35:10 *251:A 0.000195176
15 *35:10 *72:43 1.05984e-05
16 *35:21 *219:B1 8.5225e-05
17 *35:21 *46:10 0
18 *198:B1 *35:10 4.30228e-05
19 *199:B *35:10 7.30547e-05
20 *200:A *35:10 0
21 *220:A1 *219:A1 4.82919e-05
22 *220:A1 *35:10 3.86529e-05
23 *220:A1 *35:21 1.52184e-05
24 *19:23 *35:10 0
25 *24:6 *35:10 0.000142661
26 *25:10 *35:10 0.000122543
*RES
1 *209:Y *35:10 14.475 
2 *35:10 *219:A1 4.05 
3 *35:10 *35:21 2.655 
4 *35:21 *214:B1_N 4.395 
5 *35:21 *213:A 6.54 
*END

*D_NET *36 0.00247235
*CONN
*I *211:C I *D sky130_fd_sc_hd__and3_1
*I *226:B I *D sky130_fd_sc_hd__nand2_1
*I *227:B I *D sky130_fd_sc_hd__xor2_1
*I *225:B I *D sky130_fd_sc_hd__nor2_1
*I *210:Y O *D sky130_fd_sc_hd__nand4_2
*CAP
1 *211:C 0.000182375
2 *226:B 0
3 *227:B 6.66225e-05
4 *225:B 3.94561e-05
5 *210:Y 6.52181e-05
6 *36:16 0.000115566
7 *36:14 0.000260432
8 *36:8 0.000498537
9 *211:C *210:A 0.000188957
10 *211:C *76:77 9.49276e-05
11 *225:B *236:A1 0.00012296
12 *227:B *228:A 0.000123225
13 *227:B *236:A1 3.57349e-05
14 *36:8 *210:A 4.43467e-05
15 *36:8 *73:29 5.062e-06
16 *36:14 *203:B 2.0117e-05
17 *36:14 *223:B 6.03272e-05
18 *36:14 *239:B1 8.05681e-05
19 *36:14 *240:B1 0
20 *36:14 *49:10 0.000252275
21 *225:A *225:B 2.5987e-05
22 *225:A *36:14 4.43871e-06
23 *34:27 *36:14 0
24 *34:42 *225:B 6.71367e-05
25 *34:42 *227:B 0.000104541
26 *34:42 *36:16 1.35397e-05
*RES
1 *210:Y *36:8 2.665 
2 *36:8 *36:14 9.46 
3 *36:14 *36:16 0.36 
4 *36:16 *225:B 3.31 
5 *36:16 *227:B 3.7 
6 *36:14 *226:B 1.6 
7 *36:8 *211:C 4.18 
*END

*D_NET *37 0.00296467
*CONN
*I *214:A1 I *D sky130_fd_sc_hd__a21bo_1
*I *213:B I *D sky130_fd_sc_hd__nand3_1
*I *219:B1 I *D sky130_fd_sc_hd__a21o_1
*I *211:X O *D sky130_fd_sc_hd__and3_1
*CAP
1 *214:A1 0
2 *213:B 0.000104687
3 *219:B1 0.000120104
4 *211:X 0.000834916
5 *37:14 0.000224792
6 *37:12 0.000834916
7 *213:B *213:C 7.34286e-05
8 *213:B *38:37 5.53249e-06
9 *213:B *43:16 4.40325e-06
10 *219:B1 *219:A2 1.85674e-05
11 *219:B1 *38:37 0.000111782
12 *219:B1 *46:10 0
13 *37:12 *76:77 2.65814e-06
14 *204:B *37:12 4.77757e-05
15 *204:C *37:12 6.50242e-05
16 *204:D_N *37:12 2.89202e-05
17 *205:A1_N *37:12 0.000121817
18 *205:A2_N *37:12 1.43396e-05
19 *205:B2 *37:12 8.35124e-05
20 *213:A *213:B 8.03692e-05
21 *213:A *219:B1 4.43871e-06
22 *214:B1_N *37:12 8.65905e-05
23 *220:A1 *219:B1 1.08758e-05
24 *35:21 *219:B1 8.5225e-05
*RES
1 *211:X *37:12 13.57 
2 *37:12 *37:14 2 
3 *37:14 *219:B1 6.3 
4 *37:14 *213:B 6.045 
5 *37:12 *214:A1 1.6 
*END

*D_NET *38 0.00407136
*CONN
*I *213:C I *D sky130_fd_sc_hd__nand3_1
*I *214:A2 I *D sky130_fd_sc_hd__a21bo_1
*I *219:A2 I *D sky130_fd_sc_hd__a21o_1
*I *212:X O *D sky130_fd_sc_hd__a31o_1
*CAP
1 *213:C 0.000115288
2 *214:A2 3.37585e-05
3 *219:A2 1.41956e-05
4 *212:X 0.000580445
5 *38:37 0.000340975
6 *38:22 0.000786568
7 *213:C *221:C 0
8 *213:C *39:12 2.75229e-05
9 *213:C *40:12 4.40812e-05
10 *213:C *43:16 1.83847e-05
11 *213:C *47:8 0
12 *38:22 *194:A 7.37711e-05
13 *38:22 *195:B 0.00013306
14 *38:22 *203:A 4.66108e-05
15 *38:22 *73:39 3.48309e-05
16 *38:22 *75:31 8.81641e-05
17 *38:22 *75:39 0.000345118
18 *38:22 *76:58 0.000132842
19 *38:22 *76:77 2.07184e-05
20 *38:37 *221:C 0
21 *38:37 *46:10 0
22 *204:A *38:22 8.80293e-06
23 *205:B2 *38:22 0.000419704
24 *209:D *38:22 0.000151541
25 *213:A *213:C 0
26 *213:B *213:C 7.34286e-05
27 *213:B *38:37 5.53249e-06
28 *219:B1 *219:A2 1.85674e-05
29 *219:B1 *38:37 0.000111782
30 *220:A1 *38:22 0.000322365
31 *220:A1 *38:37 2.45351e-05
32 *20:12 *38:22 0
33 *21:6 *38:22 2.20014e-05
34 *23:10 *38:22 2.68016e-05
35 *34:19 *38:22 4.99619e-05
36 *34:27 *38:22 0
*RES
1 *212:X *38:22 24.84 
2 *38:22 *219:A2 1.96 
3 *38:22 *38:37 5.48 
4 *38:37 *214:A2 4.05 
5 *38:37 *213:C 6.195 
*END

*D_NET *39 0.00125591
*CONN
*I *241:A1 I *D sky130_fd_sc_hd__a21o_1
*I *221:A I *D sky130_fd_sc_hd__nand3_2
*I *213:Y O *D sky130_fd_sc_hd__nand3_1
*CAP
1 *241:A1 6.38092e-05
2 *221:A 0
3 *213:Y 0.000438821
4 *39:12 0.000502631
5 *241:A1 *241:A2 5.86409e-05
6 *241:A1 *241:B1 2.57174e-05
7 *39:12 *242:A 2.49909e-05
8 *39:12 *242:B 0
9 *39:12 *43:16 1.83463e-05
10 *39:12 *47:8 9.5433e-05
11 *213:C *39:12 2.75229e-05
*RES
1 *213:Y *39:12 10.88 
2 *39:12 *221:A 1.6 
3 *39:12 *241:A1 3.115 
*END

*D_NET *40 0.00162151
*CONN
*I *215:C I *D sky130_fd_sc_hd__and3_1
*I *217:B1 I *D sky130_fd_sc_hd__a21oi_1
*I *216:C I *D sky130_fd_sc_hd__nand3_1
*I *214:X O *D sky130_fd_sc_hd__a21bo_1
*CAP
1 *215:C 0
2 *217:B1 0.000165551
3 *216:C 0
4 *214:X 0.000256495
5 *40:25 0.000275464
6 *40:12 0.000366407
7 *40:12 *42:8 1.94805e-05
8 *40:12 *43:16 7.89689e-05
9 *40:12 *47:8 0
10 *40:12 *47:21 0
11 *40:25 *218:A 0.000162311
12 *213:C *40:12 4.40812e-05
13 *215:A *217:B1 9.72742e-06
14 *215:A *40:25 4.00541e-06
15 *216:A *217:B1 5.70646e-05
16 *216:A *40:25 9.68749e-05
17 *216:B *40:25 2.71072e-05
18 *217:A1 *217:B1 5.4155e-06
19 *32:47 *217:B1 5.25548e-05
*RES
1 *214:X *40:12 10.07 
2 *40:12 *216:C 1.6 
3 *40:12 *40:25 2.92125 
4 *40:25 *217:B1 4.12375 
5 *40:25 *215:C 1.6 
*END

*D_NET *41 0.000578574
*CONN
*I *218:A I *D sky130_fd_sc_hd__nor2_1
*I *215:X O *D sky130_fd_sc_hd__and3_1
*CAP
1 *218:A 0.000151848
2 *215:X 0.000151848
3 *218:A *42:8 4.70343e-05
4 *218:A *43:16 6.55328e-05
5 *40:25 *218:A 0.000162311
*RES
1 *215:X *218:A 10.065 
*END

*D_NET *42 0.00118124
*CONN
*I *232:B1 I *D sky130_fd_sc_hd__o21a_1
*I *234:B2 I *D sky130_fd_sc_hd__o221ai_4
*I *216:Y O *D sky130_fd_sc_hd__nand3_1
*CAP
1 *232:B1 0.000106828
2 *234:B2 0.000203919
3 *216:Y 0.000162062
4 *42:8 0.000472809
5 *232:B1 *232:A1 0
6 *232:B1 *232:A2 6.55406e-05
7 *234:B2 *234:A2 9.91257e-05
8 *42:8 *232:A1 0
9 *42:8 *232:A2 4.43871e-06
10 *218:A *42:8 4.70343e-05
11 *40:12 *42:8 1.94805e-05
*RES
1 *216:Y *42:8 6.255 
2 *42:8 *234:B2 7.17 
3 *42:8 *232:B1 5.745 
*END

*D_NET *43 0.00186744
*CONN
*I *232:A1 I *D sky130_fd_sc_hd__o21a_1
*I *218:B I *D sky130_fd_sc_hd__nor2_1
*I *217:Y O *D sky130_fd_sc_hd__a21oi_1
*CAP
1 *232:A1 0.000166895
2 *218:B 0
3 *217:Y 0.000619849
4 *43:16 0.000786744
5 *232:A1 *232:A2 4.7043e-05
6 *232:A1 *47:21 0
7 *43:16 *47:21 0
8 *213:A *43:16 3.45679e-05
9 *213:B *43:16 4.40325e-06
10 *213:C *43:16 1.83847e-05
11 *218:A *43:16 6.55328e-05
12 *232:B1 *232:A1 0
13 *33:10 *43:16 2.67022e-05
14 *39:12 *43:16 1.83463e-05
15 *40:12 *43:16 7.89689e-05
16 *42:8 *232:A1 0
*RES
1 *217:Y *43:16 16.48 
2 *43:16 *218:B 3.6 
3 *43:16 *232:A1 6.54 
*END

*D_NET *44 0.00036194
*CONN
*I *222:A I *D sky130_fd_sc_hd__xnor2_1
*I *218:Y O *D sky130_fd_sc_hd__nor2_1
*CAP
1 *222:A 0.000121823
2 *218:Y 0.000121823
3 *222:A *254:A 0
4 *222:A *47:23 0.000118294
*RES
1 *218:Y *222:A 5.39 
*END

*D_NET *45 0.00105578
*CONN
*I *241:A2 I *D sky130_fd_sc_hd__a21o_1
*I *221:B I *D sky130_fd_sc_hd__nand3_2
*I *219:X O *D sky130_fd_sc_hd__a21o_1
*CAP
1 *241:A2 8.91276e-05
2 *221:B 0
3 *219:X 0.000296833
4 *45:12 0.00038596
5 *241:A2 *241:B1 0.00016799
6 *45:12 *221:C 2.24423e-05
7 *45:12 *46:10 3.47837e-05
8 *241:A1 *241:A2 5.86409e-05
*RES
1 *219:X *45:12 9.41 
2 *45:12 *221:B 1.6 
3 *45:12 *241:A2 4.255 
*END

*D_NET *46 0.00143125
*CONN
*I *221:C I *D sky130_fd_sc_hd__nand3_2
*I *241:B1 I *D sky130_fd_sc_hd__a21o_1
*I *220:X O *D sky130_fd_sc_hd__a21o_1
*CAP
1 *221:C 2.90722e-05
2 *241:B1 0.000273254
3 *220:X 0.000243699
4 *46:10 0.000546025
5 *200:A *46:10 8.8266e-05
6 *213:C *221:C 0
7 *219:B1 *46:10 0
8 *220:A1 *46:10 0
9 *241:A1 *241:B1 2.57174e-05
10 *241:A2 *241:B1 0.00016799
11 *35:21 *46:10 0
12 *38:37 *221:C 0
13 *38:37 *46:10 0
14 *45:12 *221:C 2.24423e-05
15 *45:12 *46:10 3.47837e-05
*RES
1 *220:X *46:10 7.56 
2 *46:10 *241:B1 8.22 
3 *46:10 *221:C 4.215 
*END

*D_NET *47 0.00166844
*CONN
*I *222:B I *D sky130_fd_sc_hd__xnor2_1
*I *232:A2 I *D sky130_fd_sc_hd__o21a_1
*I *234:A1 I *D sky130_fd_sc_hd__o221ai_4
*I *242:A I *D sky130_fd_sc_hd__and2_1
*I *221:Y O *D sky130_fd_sc_hd__nand3_2
*CAP
1 *222:B 0
2 *232:A2 4.84078e-05
3 *234:A1 5.25478e-05
4 *242:A 2.60155e-05
5 *221:Y 8.33231e-05
6 *47:23 0.000262115
7 *47:21 0.000446058
8 *47:8 0.000394237
9 *234:A1 *234:A2 0
10 *47:8 *242:B 0
11 *47:21 *253:A 0
12 P[4] *47:21 0
13 *213:C *47:8 0
14 *222:A *47:23 0.000118294
15 *232:A1 *232:A2 4.7043e-05
16 *232:A1 *47:21 0
17 *232:B1 *232:A2 6.55406e-05
18 *39:12 *242:A 2.49909e-05
19 *39:12 *47:8 9.5433e-05
20 *40:12 *47:8 0
21 *40:12 *47:21 0