*SPEF "ieee 1481-1999"
*DESIGN "mult4_SarsaNStepsRuido_e9_SARSA_RUIDO_e9_SARSA_RUIDO_e9_SarsaNStepsRuido_e9"
*DATE "11:57:25 Wednesday September 17, 2025"
*VENDOR "The OpenROAD Project"
*PROGRAM "OpenROAD"
*VERSION "edf00dff99f6c40d67a30c0e22a8191c5d2ed9d6"
*DESIGN_FLOW "NAME_SCOPE LOCAL" "PIN_CAP NONE"
*DIVIDER /
*DELIMITER :
*BUS_DELIMITER []
*T_UNIT 1 NS
*C_UNIT 1 PF
*R_UNIT 1 OHM
*L_UNIT 1 HENRY

*NAME_MAP
*1 A[0]
*2 A[1]
*3 A[2]
*4 A[3]
*5 B[0]
*6 B[1]
*7 B[2]
*8 B[3]
*9 net16
*10 P[1]
*11 P[2]
*12 P[3]
*13 P[4]
*14 P[5]
*15 P[6]
*16 P[7]
*19 _000_
*20 _001_
*21 _002_
*22 _003_
*23 _004_
*24 _005_
*25 _006_
*26 _007_
*27 _008_
*28 _009_
*29 _010_
*30 _011_
*31 _012_
*32 _013_
*33 _014_
*34 _015_
*35 _016_
*36 _017_
*37 _018_
*38 _019_
*39 _020_
*40 _021_
*41 _022_
*42 _023_
*43 _024_
*44 _025_
*45 _026_
*46 _027_
*47 _028_
*48 _029_
*49 _030_
*50 _031_
*51 _032_
*52 _033_
*53 _034_
*54 _035_
*55 _036_
*56 _037_
*57 _038_
*58 _039_
*59 _040_
*60 _041_
*61 _042_
*62 _043_
*63 _044_
*64 _045_
*65 _046_
*66 _047_
*67 _048_
*68 net1
*69 net10
*70 net11
*71 net12
*72 net13
*73 net14
*74 net15
*75 net2
*76 net3
*77 net4
*78 net5
*79 net6
*80 net7
*81 net8
*82 net9
*83 FILLER_0_13
*84 FILLER_0_22
*85 FILLER_0_29
*86 FILLER_0_35
*87 FILLER_0_51
*88 FILLER_0_55
*89 FILLER_0_57
*90 FILLER_0_69
*91 FILLER_0_7
*92 FILLER_1_15
*93 FILLER_1_29
*94 FILLER_1_3
*95 FILLER_1_41
*96 FILLER_1_64
*97 FILLER_1_76
*98 FILLER_2_13
*99 FILLER_2_25
*100 FILLER_2_29
*101 FILLER_2_33
*102 FILLER_2_39
*103 FILLER_2_48
*104 FILLER_2_60
*105 FILLER_2_72
*106 FILLER_2_80
*107 FILLER_3_13
*108 FILLER_3_28
*109 FILLER_3_37
*110 FILLER_3_45
*111 FILLER_3_49
*112 FILLER_3_57
*113 FILLER_3_72
*114 FILLER_3_80
*115 FILLER_3_9
*116 FILLER_4_14
*117 FILLER_4_18
*118 FILLER_4_26
*119 FILLER_4_29
*120 FILLER_4_3
*121 FILLER_4_37
*122 FILLER_4_53
*123 FILLER_4_65
*124 FILLER_4_69
*125 FILLER_4_75
*126 FILLER_5_18
*127 FILLER_5_25
*128 FILLER_5_37
*129 FILLER_5_49
*130 FILLER_5_55
*131 FILLER_5_57
*132 FILLER_5_65
*133 FILLER_5_71
*134 FILLER_6_39
*135 FILLER_6_52
*136 FILLER_6_65
*137 FILLER_6_76
*138 FILLER_7_17
*139 FILLER_7_29
*140 FILLER_7_41
*141 FILLER_7_53
*142 FILLER_7_57
*143 FILLER_7_66
*144 FILLER_7_78
*145 FILLER_8_24
*146 FILLER_8_3
*147 FILLER_8_38
*148 FILLER_8_54
*149 FILLER_8_7
*150 FILLER_8_70
*151 FILLER_8_78
*152 FILLER_9_16
*153 FILLER_9_29
*154 FILLER_9_36
*155 FILLER_9_42
*156 FILLER_9_54
*157 FILLER_9_57
*158 FILLER_9_69
*159 FILLER_9_7
*160 FILLER_9_73
*161 PHY_EDGE_ROW_0_Left_10
*162 PHY_EDGE_ROW_0_Right_0
*163 PHY_EDGE_ROW_1_Left_11
*164 PHY_EDGE_ROW_1_Right_1
*165 PHY_EDGE_ROW_2_Left_12
*166 PHY_EDGE_ROW_2_Right_2
*167 PHY_EDGE_ROW_3_Left_13
*168 PHY_EDGE_ROW_3_Right_3
*169 PHY_EDGE_ROW_4_Left_14
*170 PHY_EDGE_ROW_4_Right_4
*171 PHY_EDGE_ROW_5_Left_15
*172 PHY_EDGE_ROW_5_Right_5
*173 PHY_EDGE_ROW_6_Left_16
*174 PHY_EDGE_ROW_6_Right_6
*175 PHY_EDGE_ROW_7_Left_17
*176 PHY_EDGE_ROW_7_Right_7
*177 PHY_EDGE_ROW_8_Left_18
*178 PHY_EDGE_ROW_8_Right_8
*179 PHY_EDGE_ROW_9_Left_19
*180 PHY_EDGE_ROW_9_Right_9
*181 TAP_TAPCELL_ROW_0_20
*182 TAP_TAPCELL_ROW_0_21
*183 TAP_TAPCELL_ROW_1_22
*184 TAP_TAPCELL_ROW_2_23
*185 TAP_TAPCELL_ROW_3_24
*186 TAP_TAPCELL_ROW_4_25
*187 TAP_TAPCELL_ROW_5_26
*188 TAP_TAPCELL_ROW_6_27
*189 TAP_TAPCELL_ROW_7_28
*190 TAP_TAPCELL_ROW_8_29
*191 TAP_TAPCELL_ROW_9_30
*192 TAP_TAPCELL_ROW_9_31
*193 _049_
*194 _050_
*195 _051_
*196 _052_
*197 _053_
*198 _054_
*199 _055_
*200 _056_
*201 _057_
*202 _058_
*203 _059_
*204 _060_
*205 _061_
*206 _062_
*207 _063_
*208 _064_
*209 _065_
*210 _066_
*211 _067_
*212 _068_
*213 _069_
*214 _070_
*215 _071_
*216 _072_
*217 _073_
*218 _074_
*219 _075_
*220 _076_
*221 _077_
*222 _078_
*223 _079_
*224 _080_
*225 _081_
*226 _082_
*227 _083_
*228 _084_
*229 _085_
*230 _086_
*231 _087_
*232 _088_
*233 _089_
*234 _090_
*235 _091_
*236 _092_
*237 _093_
*238 _094_
*239 _095_
*240 _096_
*241 _097_
*242 _098_
*243 _099_
*244 _100_
*245 _101_
*246 _102_
*247 _103_
*248 _104_
*249 input1
*250 input2
*251 input3
*252 input4
*253 input5
*254 input6
*255 input7
*256 input8
*257 mult4_SarsaNStepsRuido_e9_SARSA_RUIDO_e9_SARSA_RUIDO_e9_SarsaNStepsRuido_e9_16
*258 output10
*259 output11
*260 output12
*261 output13
*262 output14
*263 output15
*264 output9

*PORTS
A[0] I
A[1] I
A[2] I
A[3] I
B[0] I
B[1] I
B[2] I
B[3] I
P[0] O
P[1] O
P[2] O
P[3] O
P[4] O
P[5] O
P[6] O
P[7] O

*D_NET *1 0.000543635
*CONN
*P A[0] I
*I *249:A I *D sky130_fd_sc_hd__dlymetal6s2s_1
*CAP
1 A[0] 0.000244064
2 *249:A 0.000244064
3 *249:A *250:A 2.69997e-05
4 *249:A *251:A 2.85068e-05
*RES
1 A[0] *249:A 6.8343 
*END

*D_NET *2 0.000801112
*CONN
*P A[1] I
*I *250:A I *D sky130_fd_sc_hd__clkbuf_2
*CAP
1 A[1] 0.000387056
2 *250:A 0.000387056
3 *250:A *75:8 0
4 *249:A *250:A 2.69997e-05
*RES
1 A[1] *250:A 8.9643 
*END

*D_NET *3 0.00112002
*CONN
*P A[2] I
*I *251:A I *D sky130_fd_sc_hd__clkbuf_2
*CAP
1 A[2] 0.000471734
2 *251:A 0.000471734
3 *251:A *209:B1 0
4 *251:A *226:B1 8.8266e-05
5 *251:A *227:C 3.72916e-05
6 *251:A *252:A 0
7 *251:A *255:A 2.24901e-05
8 *251:A *80:10 0
9 *251:A *80:12 0
10 *249:A *251:A 2.85068e-05
*RES
1 A[2] *251:A 10.312 
*END

*D_NET *4 0.000506133
*CONN
*P A[3] I
*I *252:A I *D sky130_fd_sc_hd__dlymetal6s2s_1
*CAP
1 A[3] 0.000214742
2 *252:A 0.000214742
3 *252:A P[7] 0
4 *252:A *226:A2 2.56523e-05
5 *252:A *255:A 2.85068e-05
6 *252:A *256:A 2.24901e-05
7 *251:A *252:A 0
*RES
1 A[3] *252:A 5.35677 
*END

*D_NET *5 0.000835208
*CONN
*P B[0] I
*I *253:A I *D sky130_fd_sc_hd__clkbuf_2
*CAP
1 B[0] 0.000392663
2 *253:A 0.000392663
3 *253:A P[1] 0
4 *253:A *254:A 0
5 *253:A *79:8 4.98818e-05
*RES
1 B[0] *253:A 10.44 
*END

*D_NET *6 0.000817807
*CONN
*P B[1] I
*I *254:A I *D sky130_fd_sc_hd__dlymetal6s2s_1
*CAP
1 B[1] 0.000384758
2 *254:A 0.000384758
3 *254:A *79:8 4.82919e-05
4 *253:A *254:A 0
*RES
1 B[1] *254:A 10.35 
*END

*D_NET *7 0.0005941
*CONN
*P B[2] I
*I *255:A I *D sky130_fd_sc_hd__dlymetal6s2s_1
*CAP
1 B[2] 0.000271552
2 *255:A 0.000271552
3 *255:A *226:A2 0
4 *251:A *255:A 2.24901e-05
5 *252:A *255:A 2.85068e-05
*RES
1 B[2] *255:A 7.3443 
*END

*D_NET *8 0.000592769
*CONN
*P B[3] I
*I *256:A I *D sky130_fd_sc_hd__clkbuf_2
*CAP
1 B[3] 0.000269435
2 *256:A 0.000269435
3 *256:A P[7] 3.14094e-05
4 *252:A *256:A 2.24901e-05
*RES
1 B[3] *256:A 7.1793 
*END

*D_NET *9 0.00068359
*CONN
*P P[0] O
*I *257:LO O *D sky130_fd_sc_hd__conb_1
*CAP
1 P[0] 0.000295521
2 *257:LO 0.000295521
3 P[0] P[5] 9.25475e-05
4 P[0] *261:A 0
*RES
1 *257:LO P[0] 5.84483 
*END

*D_NET *10 0.000895016
*CONN
*P P[1] O
*I *264:X O *D sky130_fd_sc_hd__buf_2
*CAP
1 P[1] 0.000417563
2 *264:X 0.000417563
3 P[1] *264:A 2.75229e-05
4 P[1] *79:8 3.23663e-05
5 *253:A P[1] 0
*RES
1 *264:X P[1] 10.53 
*END

*D_NET *11 0.000465086
*CONN
*P P[2] O
*I *258:X O *D sky130_fd_sc_hd__buf_2
*CAP
1 P[2] 0.000232543
2 *258:X 0.000232543
*RES
1 *258:X P[2] 4.90503 
*END

*D_NET *12 0.000528031
*CONN
*P P[3] O
*I *259:X O *D sky130_fd_sc_hd__buf_2
*CAP
1 P[3] 0.000206194
2 *259:X 0.000206194
3 P[3] P[4] 9.25475e-05
4 P[3] *248:B 2.30957e-05
*RES
1 *259:X P[3] 5.41503 
*END

*D_NET *13 0.000460116
*CONN
*P P[4] O
*I *260:X O *D sky130_fd_sc_hd__buf_2
*CAP
1 P[4] 0.000183784
2 *260:X 0.000183784
3 P[4] P[5] 0
4 P[4] *223:B 0
5 P[3] P[4] 9.25475e-05
*RES
1 *260:X P[4] 4.90503 
*END

*D_NET *14 0.000591555
*CONN
*P P[5] O
*I *261:X O *D sky130_fd_sc_hd__buf_2
*CAP
1 P[5] 0.000249504
2 *261:X 0.000249504
3 P[5] *261:A 0
4 P[0] P[5] 9.25475e-05
5 P[4] P[5] 0
*RES
1 *261:X P[5] 5.92503 
*END

*D_NET *15 0.000896884
*CONN
*P P[6] O
*I *262:X O *D sky130_fd_sc_hd__buf_2
*CAP
1 P[6] 0.000448442
2 *262:X 0.000448442
*RES
1 *262:X P[6] 11.55 
*END

*D_NET *16 0.000609926
*CONN
*P P[7] O
*I *263:X O *D sky130_fd_sc_hd__buf_2
*CAP
1 P[7] 0.000260336
2 *263:X 0.000260336
3 P[7] *263:A 5.78448e-05
4 *252:A P[7] 0
5 *256:A P[7] 3.14094e-05
*RES
1 *263:X P[7] 5.92503 
*END

*D_NET *19 0.00110172
*CONN
*I *199:B1_N I *D sky130_fd_sc_hd__a21boi_1
*I *195:B1 I *D sky130_fd_sc_hd__o211a_1
*I *193:Y O *D sky130_fd_sc_hd__nand3_1
*CAP
1 *199:B1_N 6.12863e-05
2 *195:B1 0.000104064
3 *193:Y 0.000153071
4 *19:6 0.000318421
5 *195:B1 *195:C1 2.68721e-05
6 *195:B1 *78:16 0.00011686
7 *195:B1 *79:25 0
8 *199:B1_N *194:A1 0
9 *199:B1_N *194:B1 0
10 *199:B1_N *198:D 0
11 *199:B1_N *199:A1 1.16578e-05
12 *199:B1_N *68:16 2.30292e-05
13 *19:6 *193:B 8.8266e-05
14 *19:6 *68:16 8.34281e-06
15 *19:6 *78:16 0.000189845
*RES
1 *193:Y *19:6 4.465 
2 *19:6 *195:B1 7.49 
3 *19:6 *199:B1_N 3.22 
*END

*D_NET *20 0.000256152
*CONN
*I *195:C1 I *D sky130_fd_sc_hd__o211a_1
*I *194:X O *D sky130_fd_sc_hd__a21o_1
*CAP
1 *195:C1 6.60865e-05
2 *194:X 6.60865e-05
3 *195:C1 *75:8 0
4 *195:C1 *78:16 9.71067e-05
5 *195:B1 *195:C1 2.68721e-05
*RES
1 *194:X *195:C1 8.835 
*END

*D_NET *21 0.00169684
*CONN
*I *204:A I *D sky130_fd_sc_hd__xnor2_1
*I *206:C I *D sky130_fd_sc_hd__and3_1
*I *196:Y O *D sky130_fd_sc_hd__nand2_1
*CAP
1 *204:A 0.000374461
2 *206:C 0.00018258
3 *196:Y 0.000101835
4 *21:6 0.000658875
5 *204:A *203:A 0
6 *204:A *35:12 2.37102e-05
7 *204:A *45:12 0
8 *206:C *206:B 9.60582e-07
9 *206:C *216:B 0.000116853
10 *206:C *221:A1 2.24423e-05
11 *206:C *45:12 0.000198188
12 *21:6 *35:12 1.32843e-05
13 *21:6 *78:66 3.64998e-06
*RES
1 *196:Y *21:6 2.74 
2 *21:6 *206:C 9.95 
3 *21:6 *204:A 10.19 
*END

*D_NET *22 0.00186803
*CONN
*I *202:A I *D sky130_fd_sc_hd__nor3_1
*I *200:B1 I *D sky130_fd_sc_hd__o21ai_1
*I *205:C I *D sky130_fd_sc_hd__and3_1
*I *197:Y O *D sky130_fd_sc_hd__nand2_1
*CAP
1 *202:A 4.41538e-05
2 *200:B1 0
3 *205:C 0
4 *197:Y 9.68307e-05
5 *22:21 0.000496597
6 *22:6 0.000549274
7 *202:A *202:B 7.55432e-05
8 *202:A *202:C 4.89295e-05
9 *202:A *25:8 6.23393e-05
10 *202:A *27:8 2.49909e-05
11 *22:6 *205:A 4.82919e-05
12 *22:6 *33:18 2.43913e-05
13 *22:21 *202:B 6.32102e-05
14 *22:21 *202:C 4.77757e-05
15 *22:21 *211:A 4.77757e-05
16 *22:21 *211:C 6.88819e-05
17 *22:21 *23:21 5.71481e-05
18 *22:21 *29:14 9.3305e-05
19 *22:21 *33:18 1.85893e-05
*RES
1 *197:Y *22:6 2.8 
2 *22:6 *205:C 1.6 
3 *22:6 *22:21 10.615 
4 *22:21 *200:B1 1.6 
5 *22:21 *202:A 3.085 
*END

*D_NET *23 0.00192856
*CONN
*I *200:A1 I *D sky130_fd_sc_hd__o21ai_1
*I *212:B1 I *D sky130_fd_sc_hd__a21o_1
*I *211:A I *D sky130_fd_sc_hd__and3_1
*I *202:B I *D sky130_fd_sc_hd__nor3_1
*I *198:X O *D sky130_fd_sc_hd__and4_1
*CAP
1 *200:A1 0
2 *212:B1 0.000242308
3 *211:A 1.02819e-05
4 *202:B 0.000145931
5 *198:X 3.42232e-05
6 *23:21 0.000350363
7 *23:8 0.000243704
8 *23:6 3.42232e-05
9 *202:B *202:C 1.53053e-05
10 *202:B *24:6 4.77757e-05
11 *211:A *211:C 4.77757e-05
12 *212:B1 *211:C 0.000120537
13 *212:B1 *212:A1 4.22112e-05
14 *212:B1 *212:A2 3.09233e-05
15 *23:6 *198:B 0.000118606
16 *23:6 *24:6 0.000200713
17 *202:A *202:B 7.55432e-05
18 *22:21 *202:B 6.32102e-05
19 *22:21 *211:A 4.77757e-05
20 *22:21 *23:21 5.71481e-05
*RES
1 *198:X *23:6 3.43 
2 *23:6 *23:8 2 
3 *23:8 *202:B 6.045 
4 *23:8 *23:21 1.635 
5 *23:21 *211:A 4.05 
6 *23:21 *212:B1 7.815 
7 *23:6 *200:A1 1.6 
*END

*D_NET *24 0.00136805
*CONN
*I *202:C I *D sky130_fd_sc_hd__nor3_1
*I *200:A2 I *D sky130_fd_sc_hd__o21ai_1
*I *199:Y O *D sky130_fd_sc_hd__a21boi_1
*CAP
1 *202:C 4.71296e-05
2 *200:A2 0
3 *199:Y 0.000235164
4 *24:6 0.000282294
5 *202:C *198:B 4.11718e-05
6 *202:C *25:8 4.89295e-05
7 *24:6 *198:A 1.46744e-05
8 *24:6 *198:B 0.000147308
9 *24:6 *198:D 0.000102616
10 *24:6 *199:A1 8.8266e-05
11 *202:A *202:C 4.89295e-05
12 *202:B *202:C 1.53053e-05
13 *202:B *24:6 4.77757e-05
14 *22:21 *202:C 4.77757e-05
15 *23:6 *24:6 0.000200713
*RES
1 *199:Y *24:6 7.225 
2 *24:6 *200:A2 1.6 
3 *24:6 *202:C 3.1 
*END

*D_NET *25 0.00111275
*CONN
*I *201:A I *D sky130_fd_sc_hd__inv_2
*I *221:A3 I *D sky130_fd_sc_hd__a31oi_2
*I *200:Y O *D sky130_fd_sc_hd__o21ai_1
*CAP
1 *201:A 0.000238935
2 *221:A3 0
3 *200:Y 0.000129013
4 *25:8 0.000367947
5 *201:A *203:A 0
6 *201:A *221:A1 3.09164e-05
7 *201:A *27:8 8.05962e-05
8 *25:8 *198:B 0.000123589
9 *25:8 *27:8 3.04831e-05
10 *202:A *25:8 6.23393e-05
11 *202:C *25:8 4.89295e-05
*RES
1 *200:Y *25:8 4.48 
2 *25:8 *221:A3 1.6 
3 *25:8 *201:A 9.83 
*END

*D_NET *26 0.000543974
*CONN
*I *203:A I *D sky130_fd_sc_hd__nor2_1
*I *201:Y O *D sky130_fd_sc_hd__inv_2
*CAP
1 *203:A 0.000271987
2 *201:Y 0.000271987
3 *201:A *203:A 0
4 *204:A *203:A 0
*RES
1 *201:Y *203:A 10.32 
*END

*D_NET *27 0.00122221
*CONN
*I *203:B I *D sky130_fd_sc_hd__nor2_1
*I *221:B1 I *D sky130_fd_sc_hd__a31oi_2
*I *202:Y O *D sky130_fd_sc_hd__nor3_1
*CAP
1 *203:B 0.000113353
2 *221:B1 0
3 *202:Y 0.000414698
4 *27:8 0.000528052
5 *203:B *204:B 3.00381e-05
6 *201:A *27:8 8.05962e-05
7 *202:A *27:8 2.49909e-05
8 *25:8 *27:8 3.04831e-05
*RES
1 *202:Y *27:8 6.805 
2 *27:8 *221:B1 1.6 
3 *27:8 *203:B 3.715 
*END

*D_NET *28 0.000206615
*CONN
*I *204:B I *D sky130_fd_sc_hd__xnor2_1
*I *203:Y O *D sky130_fd_sc_hd__nor2_1
*CAP
1 *204:B 8.82882e-05
2 *203:Y 8.82882e-05
3 *203:B *204:B 3.00381e-05
*RES
1 *203:Y *204:B 4.685 
*END

*D_NET *29 0.00320949
*CONN
*I *207:A I *D sky130_fd_sc_hd__nand2_1
*I *208:A I *D sky130_fd_sc_hd__xnor2_1
*I *205:X O *D sky130_fd_sc_hd__and3_1
*CAP
1 *207:A 8.7478e-05
2 *208:A 0
3 *205:X 0.000670087
4 *29:14 0.000757565
5 *207:A *208:B 0.000204808
6 *207:A *231:A 0
7 *207:A *32:10 6.85293e-05
8 *207:A *55:10 8.696e-05
9 *29:14 *211:B 0.000220024
10 *29:14 *211:C 0.000107911
11 *29:14 *229:A 4.9968e-05
12 *29:14 *240:B1 3.17252e-05
13 *29:14 *33:18 0.000241483
14 *29:14 *35:12 8.40213e-05
15 *29:14 *55:10 5.88353e-05
16 *29:14 *78:66 4.77757e-05
17 *29:14 *78:84 0.000159957
18 *29:14 *78:93 0.000159964
19 *29:14 *79:62 7.90944e-05
20 *22:21 *29:14 9.3305e-05
*RES
1 *205:X *29:14 20.465 
2 *29:14 *208:A 1.6 
3 *29:14 *207:A 4.765 
*END

*D_NET *30 0.00108035
*CONN
*I *207:B I *D sky130_fd_sc_hd__nand2_1
*I *208:B I *D sky130_fd_sc_hd__xnor2_1
*I *206:X O *D sky130_fd_sc_hd__and3_1
*CAP
1 *207:B 0
2 *208:B 0.000149312
3 *206:X 0.000264869
4 *30:12 0.000414181
5 *208:B *218:A 0
6 *208:B *231:A 0
7 *208:B *32:10 4.35348e-05
8 *30:12 *41:12 0
9 *30:12 *45:12 3.64998e-06
10 *207:A *208:B 0.000204808
*RES
1 *206:X *30:12 9.47 
2 *30:12 *208:B 4.75 
3 *30:12 *207:B 1.6 
*END

*D_NET *31 0.00117428
*CONN
*I *233:A I *D sky130_fd_sc_hd__xnor2_1
*I *237:A1 I *D sky130_fd_sc_hd__a21bo_1
*I *207:Y O *D sky130_fd_sc_hd__nand2_1
*CAP
1 *233:A 0
2 *237:A1 6.573e-05
3 *207:Y 0.000206921
4 *31:12 0.000272651
5 *237:A1 *233:B 8.65961e-05
6 *237:A1 *237:A2 0.000122797
7 *237:A1 *58:8 0.000270881
8 *31:12 *233:B 1.94805e-05
9 *31:12 *236:A 0
10 *31:12 *32:10 3.00381e-05
11 *31:12 *43:10 0
12 *31:12 *55:10 9.91888e-05
*RES
1 *207:Y *31:12 9.47 
2 *31:12 *237:A1 4.12 
3 *31:12 *233:A 1.6 
*END

*D_NET *32 0.000931336
*CONN
*I *219:A I *D sky130_fd_sc_hd__xnor2_1
*I *218:A I *D sky130_fd_sc_hd__or2_1
*I *208:Y O *D sky130_fd_sc_hd__xnor2_1
*CAP
1 *219:A 0
2 *218:A 0.00017549
3 *208:Y 0.0001581
4 *32:10 0.00033359
5 *218:A *218:B 9.66106e-05
6 *218:A *223:A 2.54431e-05
7 *32:10 *218:B 0
8 *207:A *32:10 6.85293e-05
9 *208:B *218:A 0
10 *208:B *32:10 4.35348e-05
11 *31:12 *32:10 3.00381e-05
*RES
1 *208:Y *32:10 4.84 
2 *32:10 *218:A 4.48 
3 *32:10 *219:A 1.6 
*END

*D_NET *33 0.00327076
*CONN
*I *211:B I *D sky130_fd_sc_hd__and3_1
*I *212:A1 I *D sky130_fd_sc_hd__a21o_1
*I *209:Y O *D sky130_fd_sc_hd__o211ai_1
*CAP
1 *211:B 0.000163565
2 *212:A1 0.000130404
3 *209:Y 0.000377546
4 *33:18 0.000671515
5 *212:A1 *210:A2 0
6 *212:A1 *210:B1 0
7 *212:A1 *211:C 7.06865e-05
8 *212:A1 *212:A2 4.38051e-05
9 *212:A1 *34:8 2.49909e-05
10 *33:18 *205:A 1.47347e-05
11 *33:18 *209:A2 0.000501897
12 *33:18 *209:C1 7.4027e-05
13 *33:18 *68:8 0.000502803
14 *33:18 *81:44 0.000148089
15 *212:B1 *212:A1 4.22112e-05
16 *22:6 *33:18 2.43913e-05
17 *22:21 *33:18 1.85893e-05
18 *29:14 *211:B 0.000220024
19 *29:14 *33:18 0.000241483
*RES
1 *209:Y *33:18 15.68 
2 *33:18 *212:A1 8.135 
3 *33:18 *211:B 3.775 
*END

*D_NET *34 0.00115316
*CONN
*I *212:A2 I *D sky130_fd_sc_hd__a21o_1
*I *211:C I *D sky130_fd_sc_hd__and3_1
*I *210:X O *D sky130_fd_sc_hd__a22o_1
*CAP
1 *212:A2 3.52021e-05
2 *211:C 0.000147916
3 *210:X 0.000135705
4 *34:8 0.000318823
5 *211:C *229:B 0
6 *212:A2 *78:84 0
7 *211:A *211:C 4.77757e-05
8 *212:A1 *211:C 7.06865e-05
9 *212:A1 *212:A2 4.38051e-05
10 *212:A1 *34:8 2.49909e-05
11 *212:B1 *211:C 0.000120537
12 *212:B1 *212:A2 3.09233e-05
13 *22:21 *211:C 6.88819e-05
14 *29:14 *211:C 0.000107911
*RES
1 *210:X *34:8 5.085 
2 *34:8 *211:C 7.59 
3 *34:8 *212:A2 4.47 
*END

*D_NET *35 0.00267158
*CONN
*I *213:A_N I *D sky130_fd_sc_hd__and2b_1
*I *217:B1 I *D sky130_fd_sc_hd__a21oi_1
*I *211:X O *D sky130_fd_sc_hd__and3_1
*CAP
1 *213:A_N 0.00032738
2 *217:B1 0
3 *211:X 0.000592606
4 *35:12 0.000919987
5 *213:A_N *213:B 3.42871e-05
6 *213:A_N *220:A 0.00012083
7 *213:A_N *220:B 0.000272984
8 *35:12 *41:12 7.30547e-05
9 *35:12 *45:12 5.93844e-05
10 *35:12 *78:66 0.000150046
11 *204:A *35:12 2.37102e-05
12 *21:6 *35:12 1.32843e-05
13 *29:14 *35:12 8.40213e-05
*RES
1 *211:X *35:12 13.46 
2 *35:12 *217:B1 1.6 
3 *35:12 *213:A_N 7.69 
*END

*D_NET *36 0.00236281
*CONN
*I *213:B I *D sky130_fd_sc_hd__and2b_1
*I *217:A1 I *D sky130_fd_sc_hd__a21oi_1
*I *212:X O *D sky130_fd_sc_hd__a21o_1
*CAP
1 *213:B 0.000282097
2 *217:A1 4.11621e-05
3 *212:X 0.000496339
4 *36:6 0.000819598
5 *213:B *220:A 0.00012657
6 *213:B *220:B 0.000157607
7 *213:B *41:12 4.82919e-05
8 *213:B *44:10 4.82863e-05
9 *217:A1 *220:B 1.90686e-05
10 *217:A1 *40:10 3.26889e-05
11 *36:6 *214:B1 2.04648e-05
12 *36:6 *216:A 0.000131868
13 *36:6 *220:B 1.17409e-05
14 *36:6 *40:10 9.2741e-05
15 *213:A_N *213:B 3.42871e-05
*RES
1 *212:X *36:6 7.57 
2 *36:6 *217:A1 2.47 
3 *36:6 *213:B 7 
*END

*D_NET *37 0.000333131
*CONN
*I *220:A I *D sky130_fd_sc_hd__xnor2_1
*I *213:X O *D sky130_fd_sc_hd__and2b_1
*CAP
1 *220:A 2.65212e-05
2 *213:X 2.65212e-05
3 *220:A *220:B 3.26889e-05
4 *213:A_N *220:A 0.00012083
5 *213:B *220:A 0.00012657
*RES
1 *213:X *220:A 4.7 
*END

*D_NET *38 0.000446702
*CONN
*I *216:A I *D sky130_fd_sc_hd__nor2_1
*I *214:Y O *D sky130_fd_sc_hd__a22oi_1
*CAP
1 *216:A 8.90671e-05
2 *214:Y 8.90671e-05
3 *216:A *214:A2 7.06056e-05
4 *216:A *214:B1 2.68526e-05
5 *216:A *40:10 5.4155e-06
6 *216:A *79:77 3.3826e-05
7 *36:6 *216:A 0.000131868
*RES
1 *214:Y *216:A 5.735 
*END

*D_NET *39 0.000510118
*CONN
*I *216:B I *D sky130_fd_sc_hd__nor2_1
*I *215:X O *D sky130_fd_sc_hd__o211a_1
*CAP
1 *216:B 0.000141372
2 *215:X 0.000141372
3 *216:B *206:A 3.00381e-05
4 *216:B *206:B 3.81908e-06
5 *216:B *40:10 4.99619e-05
6 *216:B *79:77 2.67022e-05
7 *206:C *216:B 0.000116853
*RES
1 *215:X *216:B 9.825 
*END

*D_NET *40 0.00118482
*CONN
*I *220:B I *D sky130_fd_sc_hd__xnor2_1
*I *217:A2 I *D sky130_fd_sc_hd__a21oi_1
*I *216:Y O *D sky130_fd_sc_hd__nor2_1
*CAP
1 *220:B 0.000155106
2 *217:A2 0
3 *216:Y 8.73625e-05
4 *40:10 0.000242468
5 *220:B *41:12 2.49909e-05
6 *213:A_N *220:B 0.000272984
7 *213:B *220:B 0.000157607
8 *216:A *40:10 5.4155e-06
9 *216:B *40:10 4.99619e-05
10 *217:A1 *220:B 1.90686e-05
11 *217:A1 *40:10 3.26889e-05
12 *220:A *220:B 3.26889e-05
13 *36:6 *220:B 1.17409e-05
14 *36:6 *40:10 9.2741e-05
*RES
1 *216:Y *40:10 3.805 
2 *40:10 *217:A2 1.6 
3 *40:10 *220:B 6.34 
*END

*D_NET *41 0.00134909
*CONN
*I *218:B I *D sky130_fd_sc_hd__or2_1
*I *219:B I *D sky130_fd_sc_hd__xnor2_1
*I *217:Y O *D sky130_fd_sc_hd__a21oi_1
*CAP
1 *218:B 5.59784e-05
2 *219:B 0
3 *217:Y 0.000433563
4 *41:12 0.000489541
5 *218:B *223:A 0.000104034
6 *218:B *43:10 2.30292e-05
7 *41:12 *44:10 0
8 *41:12 *44:21 0
9 *41:12 *44:32 0
10 *41:12 *45:12 0
11 *213:B *41:12 4.82919e-05
12 *218:A *218:B 9.66106e-05
13 *220:B *41:12 2.49909e-05
14 *30:12 *41:12 0
15 *32:10 *218:B 0
16 *35:12 *41:12 7.30547e-05
*RES
1 *217:Y *41:12 12.785 
2 *41:12 *219:B 1.6 
3 *41:12 *218:B 3.445 
*END

*D_NET *42 0.00213612
*CONN
*I *234:B1 I *D sky130_fd_sc_hd__o31a_1
*I *237:A2 I *D sky130_fd_sc_hd__a21bo_1
*I *218:X O *D sky130_fd_sc_hd__or2_1
*CAP
1 *234:B1 0
2 *237:A2 0.000516589
3 *218:X 0.000170208
4 *42:12 0.000686797
5 *237:A2 *233:B 6.10324e-05
6 *237:A2 *234:A1 0.000123225
7 *237:A2 *55:10 0.000114201
8 *237:A2 *58:8 2.20014e-05
9 *42:12 *223:A 0.00012656
10 *42:12 *236:A 1.0183e-05
11 *42:12 *43:10 4.49498e-05
12 *42:12 *44:32 0.000137571
13 *237:A1 *237:A2 0.000122797
*RES
1 *218:X *42:12 8.72 
2 *42:12 *237:A2 14.51 
3 *42:12 *234:B1 1.6 
*END

*D_NET *43 0.00190658
*CONN
*I *223:A I *D sky130_fd_sc_hd__xnor2_1
*I *236:A I *D sky130_fd_sc_hd__or4b_1
*I *234:A1 I *D sky130_fd_sc_hd__o31a_1
*I *219:Y O *D sky130_fd_sc_hd__xnor2_1
*CAP
1 *223:A 0.000303966
2 *236:A 0.000135632
3 *234:A1 0.000133884
4 *219:Y 0
5 *43:10 0.000374002
6 *43:4 0.000408452
7 *234:A1 *234:A2 4.66108e-05
8 *234:A1 *234:A3 4.66108e-05
9 *236:A *236:B 0
10 *218:A *223:A 2.54431e-05
11 *218:B *223:A 0.000104034
12 *218:B *43:10 2.30292e-05
13 *237:A2 *234:A1 0.000123225
14 *31:12 *236:A 0
15 *31:12 *43:10 0
16 *42:12 *223:A 0.00012656
17 *42:12 *236:A 1.0183e-05
18 *42:12 *43:10 4.49498e-05
*RES
1 *219:Y *43:4 1.6 
2 *43:4 *43:10 3.83 
3 *43:10 *234:A1 6.135 
4 *43:10 *236:A 5.745 
5 *43:4 *223:A 7.27 
*END

*D_NET *44 0.00326323
*CONN
*I *236:B I *D sky130_fd_sc_hd__or4b_1
*I *234:A2 I *D sky130_fd_sc_hd__o31a_1
*I *222:A I *D sky130_fd_sc_hd__nor2_1
*I *247:A I *D sky130_fd_sc_hd__and2_1
*I *220:Y O *D sky130_fd_sc_hd__xnor2_1
*CAP
1 *236:B 0.000118804
2 *234:A2 2.61242e-05
3 *222:A 0.000121803
4 *247:A 0.000153963
5 *220:Y 0.000255129
6 *44:32 0.000301674
7 *44:21 0.000361137
8 *44:10 0.00049168
9 *222:A *222:B 0.000239813
10 *236:B *236:C 0.000183738
11 *236:B *261:A 0
12 *247:A *247:B 0.000160717
13 *247:A *45:12 4.66108e-05
14 *44:10 *45:16 2.92496e-05
15 *44:21 *45:16 0.000164686
16 *44:21 *45:29 2.14129e-05
17 *44:32 *236:C 4.14369e-05
18 *44:32 *45:29 0.000312785
19 *213:B *44:10 4.82863e-05
20 *234:A1 *234:A2 4.66108e-05
21 *236:A *236:B 0
22 *41:12 *44:10 0
23 *41:12 *44:21 0
24 *41:12 *44:32 0
25 *42:12 *44:32 0.000137571
*RES
1 *220:Y *44:10 6.96 
2 *44:10 *247:A 6.81 
3 *44:10 *44:21 2.145 
4 *44:21 *222:A 6.12 
5 *44:21 *44:32 4.185 
6 *44:32 *234:A2 4.05 
7 *44:32 *236:B 6.255 
*END

*D_NET *45 0.00468609
*CONN
*I *247:B I *D sky130_fd_sc_hd__and2_1
*I *236:C I *D sky130_fd_sc_hd__or4b_1
*I *234:A3 I *D sky130_fd_sc_hd__o31a_1
*I *222:B I *D sky130_fd_sc_hd__nor2_1
*I *221:Y O *D sky130_fd_sc_hd__a31oi_2
*CAP
1 *247:B 0.000331443
2 *236:C 0.000185101
3 *234:A3 2.89988e-05
4 *222:B 0.000149957
5 *221:Y 0.000530522
6 *45:29 0.000405333
7 *45:16 0.000440047
8 *45:12 0.000960823
9 *222:B *248:A 7.00889e-06
10 *222:B *259:A 0
11 *222:B *46:6 1.61831e-05
12 *236:C *235:A 5.83121e-06
13 *236:C *235:B 7.36562e-05
14 *236:C *56:8 4.29016e-05
15 *45:12 *221:A1 0
16 *45:12 *79:77 0
17 *45:29 *223:B 0
18 *204:A *45:12 0
19 *206:C *45:12 0.000198188
20 *222:A *222:B 0.000239813
21 *234:A1 *234:A3 4.66108e-05
22 *236:B *236:C 0.000183738
23 *247:A *247:B 0.000160717
24 *247:A *45:12 4.66108e-05
25 *30:12 *45:12 3.64998e-06
26 *35:12 *45:12 5.93844e-05
27 *41:12 *45:12 0
28 *44:10 *45:16 2.92496e-05
29 *44:21 *45:16 0.000164686
30 *44:21 *45:29 2.14129e-05
31 *44:32 *236:C 4.14369e-05
32 *44:32 *45:29 0.000312785
*RES
1 *221:Y *45:12 14.615 
2 *45:12 *45:16 4.145 
3 *45:16 *222:B 6.825 
4 *45:16 *45:29 3.93 
5 *45:29 *234:A3 4.05 
6 *45:29 *236:C 7.395 
7 *45:12 *247:B 6.7 
*END

*D_NET *46 0.000588184
*CONN
*I *223:B I *D sky130_fd_sc_hd__xnor2_1
*I *248:A I *D sky130_fd_sc_hd__nor2_1
*I *222:Y O *D sky130_fd_sc_hd__nor2_1
*CAP
1 *223:B 0.000109761
2 *248:A 0.000137909
3 *222:Y 3.28225e-05
4 *46:6 0.000280493
5 *248:A *259:A 4.00541e-06
6 P[4] *223:B 0
7 *222:B *248:A 7.00889e-06
8 *222:B *46:6 1.61831e-05
9 *45:29 *223:B 0
*RES
1 *222:Y *46:6 2.05 
2 *46:6 *248:A 3.805 
3 *46:6 *223:B 7.235 
*END

*D_NET *47 0.00133173
*CONN
*I *227:A I *D sky130_fd_sc_hd__or3_1
*I *239:S I *D sky130_fd_sc_hd__mux2_1
*I *246:A2 I *D sky130_fd_sc_hd__a211o_1
*I *224:X O *D sky130_fd_sc_hd__and3_1
*CAP
1 *227:A 3.3221e-05
2 *239:S 7.01369e-05
3 *246:A2 0
4 *224:X 0.000106791
5 *47:18 0.000264944
6 *47:12 0.000334819
7 *227:A *77:21 8.65961e-05
8 *239:S *246:B1 7.96171e-05
9 *239:S *263:A 5.72004e-05
10 *47:12 *226:A2 0
11 *47:12 *227:C 0.00011852
12 *47:12 *77:23 0
13 *47:12 *80:69 4.82863e-05
14 *47:18 *226:A2 4.18603e-06
15 *47:18 *238:B 0
16 *47:18 *246:B1 4.18603e-06
17 *47:18 *77:21 0.000123225
*RES
1 *224:X *47:12 7.685 
2 *47:12 *47:18 5.285 
3 *47:18 *246:A2 3.6 
4 *47:18 *239:S 5.745 
5 *47:12 *227:A 2.395 
*END

*D_NET *48 0.000279356
*CONN
*I *227:B I *D sky130_fd_sc_hd__or3_1
*I *225:Y O *D sky130_fd_sc_hd__nor2_1
*CAP
1 *227:B 9.13917e-05
2 *225:Y 9.13917e-05
3 *227:B *50:10 4.82863e-05
4 *227:B *77:21 4.82863e-05
*RES
1 *225:Y *227:B 4.34 
*END

*D_NET *49 0.000808522
*CONN
*I *227:C I *D sky130_fd_sc_hd__or3_1
*I *226:Y O *D sky130_fd_sc_hd__a21oi_1
*CAP
1 *227:C 0.000246739
2 *226:Y 0.000246739
3 *227:C *224:B 3.86607e-05
4 *227:C *226:A2 0
5 *227:C *226:B1 2.66586e-05
6 *227:C *76:13 4.05674e-06
7 *227:C *77:23 4.40643e-05
8 *227:C *77:29 4.57927e-05
9 *227:C *80:10 0
10 *251:A *227:C 3.72916e-05
11 *47:12 *227:C 0.00011852
*RES
1 *226:Y *227:C 12.105 
*END

*D_NET *50 0.0014151
*CONN
*I *232:A I *D sky130_fd_sc_hd__xor2_1
*I *231:A I *D sky130_fd_sc_hd__nor2_1
*I *227:X O *D sky130_fd_sc_hd__or3_1
*CAP
1 *232:A 0
2 *231:A 0.000162943
3 *227:X 0.000341624
4 *50:10 0.000504567
5 *231:A *231:B 0.000186664
6 *231:A *55:10 2.44465e-05
7 *50:10 *225:A 2.75229e-05
8 *50:10 *231:B 4.99619e-05
9 *50:10 *53:8 6.90876e-05
10 *207:A *231:A 0
11 *208:B *231:A 0
12 *227:B *50:10 4.82863e-05
*RES
1 *227:X *50:10 7.255 
2 *50:10 *231:A 4.84 
3 *50:10 *232:A 1.6 
*END

*D_NET *51 0.00114206
*CONN
*I *240:A1 I *D sky130_fd_sc_hd__a21oi_1
*I *230:A I *D sky130_fd_sc_hd__xnor2_1
*I *228:X O *D sky130_fd_sc_hd__and4_1
*CAP
1 *240:A1 0
2 *230:A 4.88978e-05
3 *228:X 0.000200754
4 *51:12 0.000249652
5 *230:A *230:B 0.000153794
6 *230:A *52:10 8.53113e-06
7 *230:A *62:8 8.97564e-05
8 *51:12 *229:B 7.4027e-05
9 *51:12 *240:B1 8.49205e-05
10 *51:12 *52:10 0
11 *51:12 *62:8 5.39961e-05
12 *51:12 *81:25 0.00017773
*RES
1 *228:X *51:12 10.415 
2 *51:12 *230:A 7.49 
3 *51:12 *240:A1 1.6 
*END

*D_NET *52 0.000677358
*CONN
*I *230:B I *D sky130_fd_sc_hd__xnor2_1
*I *240:A2 I *D sky130_fd_sc_hd__a21oi_1
*I *229:X O *D sky130_fd_sc_hd__and4_1
*CAP
1 *230:B 9.39308e-05
2 *240:A2 0
3 *229:X 0.00012379
4 *52:10 0.000217721
5 *230:B *62:8 1.01661e-05
6 *52:10 *229:A 4.99619e-05
7 *52:10 *62:8 1.94636e-05
8 *230:A *230:B 0.000153794
9 *230:A *52:10 8.53113e-06
10 *51:12 *52:10 0
*RES
1 *229:X *52:10 5.685 
2 *52:10 *240:A2 3.6 
3 *52:10 *230:B 5.745 
*END

*D_NET *53 0.000665896
*CONN
*I *231:B I *D sky130_fd_sc_hd__nor2_1
*I *232:B I *D sky130_fd_sc_hd__xor2_1
*I *230:Y O *D sky130_fd_sc_hd__xnor2_1
*CAP
1 *231:B 9.34187e-05
2 *232:B 0
3 *230:Y 7.67363e-05
4 *53:8 0.000170155
5 *231:B *55:10 1.9872e-05
6 *231:A *231:B 0.000186664
7 *50:10 *231:B 4.99619e-05
8 *50:10 *53:8 6.90876e-05
*RES
1 *230:Y *53:8 3.1 
2 *53:8 *232:B 1.6 
3 *53:8 *231:B 4.24 
*END

*D_NET *54 0.00107923
*CONN
*I *240:B1 I *D sky130_fd_sc_hd__a21oi_1
*I *231:Y O *D sky130_fd_sc_hd__nor2_1
*CAP
1 *240:B1 0.000481293
2 *231:Y 0.000481293
3 *29:14 *240:B1 3.17252e-05
4 *51:12 *240:B1 8.49205e-05
*RES
1 *231:Y *240:B1 13.95 
*END

*D_NET *55 0.0015532
*CONN
*I *233:B I *D sky130_fd_sc_hd__xnor2_1
*I *237:B1_N I *D sky130_fd_sc_hd__a21bo_1
*I *232:X O *D sky130_fd_sc_hd__xor2_1
*CAP
1 *233:B 7.03541e-05
2 *237:B1_N 0
3 *232:X 0.00042094
4 *55:10 0.000491294
5 *207:A *55:10 8.696e-05
6 *231:A *55:10 2.44465e-05
7 *231:B *55:10 1.9872e-05
8 *237:A1 *233:B 8.65961e-05
9 *237:A2 *233:B 6.10324e-05
10 *237:A2 *55:10 0.000114201
11 *29:14 *55:10 5.88353e-05
12 *31:12 *233:B 1.94805e-05
13 *31:12 *55:10 9.91888e-05
*RES
1 *232:X *55:10 10.41 
2 *55:10 *237:B1_N 3.6 
3 *55:10 *233:B 5.265 
*END

*D_NET *56 0.000917538
*CONN
*I *235:A I *D sky130_fd_sc_hd__xnor2_1
*I *236:D_N I *D sky130_fd_sc_hd__or4b_1
*I *233:Y O *D sky130_fd_sc_hd__xnor2_1
*CAP
1 *235:A 0.000103177
2 *236:D_N 0
3 *233:Y 0.000287093
4 *56:8 0.00039027
5 *56:8 *58:8 8.8266e-05
6 *236:C *235:A 5.83121e-06
7 *236:C *56:8 4.29016e-05
*RES
1 *233:Y *56:8 5.17 
2 *56:8 *236:D_N 1.6 
3 *56:8 *235:A 3.1 
*END

*D_NET *57 0.000343988
*CONN
*I *235:B I *D sky130_fd_sc_hd__xnor2_1
*I *234:X O *D sky130_fd_sc_hd__o31a_1
*CAP
1 *235:B 0.000135166
2 *234:X 0.000135166
3 *236:C *235:B 7.36562e-05
*RES
1 *234:X *235:B 9.285 
*END

*D_NET *58 0.00178856
*CONN
*I *244:A I *D sky130_fd_sc_hd__and3_1
*I *243:A1 I *D sky130_fd_sc_hd__a21oi_1
*I *236:X O *D sky130_fd_sc_hd__or4b_1
*CAP
1 *244:A 0
2 *243:A1 0.000177196
3 *236:X 0.000423189
4 *58:8 0.000600386
5 *243:A1 *244:C 0.000148936
6 *243:A1 *245:B 2.38788e-05
7 *58:8 *245:B 2.04923e-05
8 *58:8 *59:6 1.33293e-05
9 *237:A1 *58:8 0.000270881
10 *237:A2 *58:8 2.20014e-05
11 *56:8 *58:8 8.8266e-05
*RES
1 *236:X *58:8 8.785 
2 *58:8 *243:A1 4.135 
3 *58:8 *244:A 1.6 
*END

*D_NET *59 0.000705597
*CONN
*I *244:B I *D sky130_fd_sc_hd__and3_1
*I *243:A2 I *D sky130_fd_sc_hd__a21oi_1
*I *237:X O *D sky130_fd_sc_hd__a21bo_1
*CAP
1 *244:B 0
2 *243:A2 0.000133152
3 *237:X 0.000108228
4 *59:6 0.00024138
5 *243:A2 *244:C 1.16854e-05
6 *243:A2 *245:B 8.64421e-05
7 *59:6 *245:B 0.00011138
8 *58:8 *59:6 1.33293e-05
*RES
1 *237:X *59:6 3.085 
2 *59:6 *243:A2 3.61 
3 *59:6 *244:B 1.6 
*END

*D_NET *60 0.000336901
*CONN
*I *239:A0 I *D sky130_fd_sc_hd__mux2_1
*I *238:Y O *D sky130_fd_sc_hd__nand2_1
*CAP
1 *239:A0 0.000106664
2 *238:Y 0.000106664
3 *239:A0 *239:A1 8.49205e-05
4 *239:A0 *246:B1 3.86529e-05
*RES
1 *238:Y *239:A0 8.865 
*END

*D_NET *61 0.00060118
*CONN
*I *242:A I *D sky130_fd_sc_hd__xnor2_1
*I *241:A I *D sky130_fd_sc_hd__nor2_1
*I *239:X O *D sky130_fd_sc_hd__mux2_1
*CAP
1 *242:A 0.00012832
2 *241:A 0.000127695
3 *239:X 0
4 *61:4 0.000256014
5 *241:A *239:A1 1.7386e-05
6 *241:A *241:B 0
7 *241:A *246:B1 2.66935e-05
8 *241:A *263:A 0
9 *242:A *239:A1 4.50715e-05
*RES
1 *239:X *61:4 1.6 
2 *61:4 *241:A 7.685 
3 *61:4 *242:A 3.715 
*END

*D_NET *62 0.00170087
*CONN