*SPEF "ieee 1481-1999"
*DESIGN "mult4_SarsaNada_e6_SARSA_RUIDO_e9_SarsaNStepsRuido_e9_SARSA_RUIDO_e9"
*DATE "12:05:09 Wednesday September 17, 2025"
*VENDOR "The OpenROAD Project"
*PROGRAM "OpenROAD"
*VERSION "edf00dff99f6c40d67a30c0e22a8191c5d2ed9d6"
*DESIGN_FLOW "NAME_SCOPE LOCAL" "PIN_CAP NONE"
*DIVIDER /
*DELIMITER :
*BUS_DELIMITER []
*T_UNIT 1 NS
*C_UNIT 1 PF
*R_UNIT 1 OHM
*L_UNIT 1 HENRY

*NAME_MAP
*1 A[0]
*2 A[1]
*3 A[2]
*4 A[3]
*5 B[0]
*6 B[1]
*7 B[2]
*8 B[3]
*9 P[0]
*10 P[1]
*11 P[2]
*12 P[3]
*13 P[4]
*14 P[5]
*15 P[6]
*16 P[7]
*19 _000_
*20 _001_
*21 _002_
*22 _003_
*23 _004_
*24 _005_
*25 _006_
*26 _007_
*27 _008_
*28 _009_
*29 _010_
*30 _011_
*31 _012_
*32 _013_
*33 _014_
*34 _015_
*35 _016_
*36 _017_
*37 _018_
*38 _019_
*39 _020_
*40 _021_
*41 _022_
*42 _023_
*43 _024_
*44 _025_
*45 _026_
*46 _027_
*47 _028_
*48 _029_
*49 _030_
*50 _031_
*51 _032_
*52 _033_
*53 _034_
*54 _035_
*55 _036_
*56 _037_
*57 _038_
*58 _039_
*59 _040_
*60 _041_
*61 _042_
*62 _043_
*63 _044_
*64 _045_
*65 _046_
*66 _047_
*67 _048_
*68 _049_
*69 _050_
*70 net1
*71 net10
*72 net11
*73 net12
*74 net13
*75 net14
*76 net15
*77 net16
*78 net2
*79 net3
*80 net4
*81 net5
*82 net6
*83 net7
*84 net8
*85 net9
*86 FILLER_0_15
*87 FILLER_0_29
*88 FILLER_0_3
*89 FILLER_0_37
*90 FILLER_0_62
*91 FILLER_0_74
*92 FILLER_0_80
*93 FILLER_1_3
*94 FILLER_1_34
*95 FILLER_1_46
*96 FILLER_1_54
*97 FILLER_1_64
*98 FILLER_1_76
*99 FILLER_2_13
*100 FILLER_2_25
*101 FILLER_2_34
*102 FILLER_2_38
*103 FILLER_2_46
*104 FILLER_2_60
*105 FILLER_2_67
*106 FILLER_2_80
*107 FILLER_3_21
*108 FILLER_3_27
*109 FILLER_3_3
*110 FILLER_3_47
*111 FILLER_3_55
*112 FILLER_3_62
*113 FILLER_3_74
*114 FILLER_3_80
*115 FILLER_4_12
*116 FILLER_4_24
*117 FILLER_4_29
*118 FILLER_4_40
*119 FILLER_4_48
*120 FILLER_4_62
*121 FILLER_4_70
*122 FILLER_5_24
*123 FILLER_5_32
*124 FILLER_5_36
*125 FILLER_5_48
*126 FILLER_5_57
*127 FILLER_5_69
*128 FILLER_5_9
*129 FILLER_6_25
*130 FILLER_6_65
*131 FILLER_6_80
*132 FILLER_7_15
*133 FILLER_7_27
*134 FILLER_7_3
*135 FILLER_7_39
*136 FILLER_7_44
*137 FILLER_7_57
*138 FILLER_7_69
*139 FILLER_8_19
*140 FILLER_8_3
*141 FILLER_8_36
*142 FILLER_8_62
*143 FILLER_8_68
*144 FILLER_8_7
*145 FILLER_8_76
*146 FILLER_8_80
*147 FILLER_9_15
*148 FILLER_9_23
*149 FILLER_9_29
*150 FILLER_9_3
*151 FILLER_9_41
*152 FILLER_9_53
*153 FILLER_9_67
*154 FILLER_9_75
*155 PHY_EDGE_ROW_0_Left_10
*156 PHY_EDGE_ROW_0_Right_0
*157 PHY_EDGE_ROW_1_Left_11
*158 PHY_EDGE_ROW_1_Right_1
*159 PHY_EDGE_ROW_2_Left_12
*160 PHY_EDGE_ROW_2_Right_2
*161 PHY_EDGE_ROW_3_Left_13
*162 PHY_EDGE_ROW_3_Right_3
*163 PHY_EDGE_ROW_4_Left_14
*164 PHY_EDGE_ROW_4_Right_4
*165 PHY_EDGE_ROW_5_Left_15
*166 PHY_EDGE_ROW_5_Right_5
*167 PHY_EDGE_ROW_6_Left_16
*168 PHY_EDGE_ROW_6_Right_6
*169 PHY_EDGE_ROW_7_Left_17
*170 PHY_EDGE_ROW_7_Right_7
*171 PHY_EDGE_ROW_8_Left_18
*172 PHY_EDGE_ROW_8_Right_8
*173 PHY_EDGE_ROW_9_Left_19
*174 PHY_EDGE_ROW_9_Right_9
*175 TAP_TAPCELL_ROW_0_20
*176 TAP_TAPCELL_ROW_0_21
*177 TAP_TAPCELL_ROW_1_22
*178 TAP_TAPCELL_ROW_2_23
*179 TAP_TAPCELL_ROW_3_24
*180 TAP_TAPCELL_ROW_4_25
*181 TAP_TAPCELL_ROW_5_26
*182 TAP_TAPCELL_ROW_6_27
*183 TAP_TAPCELL_ROW_7_28
*184 TAP_TAPCELL_ROW_8_29
*185 TAP_TAPCELL_ROW_9_30
*186 TAP_TAPCELL_ROW_9_31
*187 _051_
*188 _052_
*189 _053_
*190 _054_
*191 _055_
*192 _056_
*193 _057_
*194 _058_
*195 _059_
*196 _060_
*197 _061_
*198 _062_
*199 _063_
*200 _064_
*201 _065_
*202 _066_
*203 _067_
*204 _068_
*205 _069_
*206 _070_
*207 _071_
*208 _072_
*209 _073_
*210 _074_
*211 _075_
*212 _076_
*213 _077_
*214 _078_
*215 _079_
*216 _080_
*217 _081_
*218 _082_
*219 _083_
*220 _084_
*221 _085_
*222 _086_
*223 _087_
*224 _088_
*225 _089_
*226 _090_
*227 _091_
*228 _092_
*229 _093_
*230 _094_
*231 _095_
*232 _096_
*233 _097_
*234 _098_
*235 _099_
*236 _100_
*237 _101_
*238 _102_
*239 _103_
*240 _104_
*241 _105_
*242 _106_
*243 _107_
*244 _108_
*245 _109_
*246 input1
*247 input2
*248 input3
*249 input4
*250 input5
*251 input6
*252 input7
*253 input8
*254 output10
*255 output11
*256 output12
*257 output13
*258 output14
*259 output15
*260 output16
*261 output9

*PORTS
A[0] I
A[1] I
A[2] I
A[3] I
B[0] I
B[1] I
B[2] I
B[3] I
P[0] O
P[1] O
P[2] O
P[3] O
P[4] O
P[5] O
P[6] O
P[7] O

*D_NET *1 0.000899333
*CONN
*P A[0] I
*I *246:A I *D sky130_fd_sc_hd__clkbuf_2
*CAP
1 A[0] 0.000422164
2 *246:A 0.000422164
3 *246:A *247:A 0
4 *246:A *250:A 0
5 *246:A *70:6 5.50049e-05
*RES
1 A[0] *246:A 46.9693 
*END

*D_NET *2 0.00130911
*CONN
*P A[1] I
*I *247:A I *D sky130_fd_sc_hd__clkbuf_2
*CAP
1 A[1] 0.000447388
2 *247:A 0.000447388
3 *247:A P[0] 0
4 *247:A *70:6 5.67058e-05
5 *247:A *70:41 0.000172197
6 *247:A *78:6 0.000185428
7 *246:A *247:A 0
*RES
1 A[1] *247:A 48.875 
*END

*D_NET *3 0.000822722
*CONN
*P A[2] I
*I *248:A I *D sky130_fd_sc_hd__buf_1
*CAP
1 A[2] 0.000281283
2 *248:A 0
3 *3:17 0.000281283
4 *3:17 *4:15 0.000260156
5 *3:17 *6:17 0
6 *3:17 *40:16 0
*RES
1 A[2] *3:17 27.5105 
2 *3:17 *248:A 23 
*END

*D_NET *4 0.0009898
*CONN
*P A[3] I
*I *249:A I *D sky130_fd_sc_hd__buf_1
*CAP
1 A[3] 0.000337684
2 *249:A 0
3 *4:15 0.000337684
4 *4:15 *6:17 3.12475e-05
5 *4:15 *40:16 0
6 *4:15 *79:6 2.30292e-05
7 *3:17 *4:15 0.000260156
*RES
1 A[3] *4:15 29.5117 
2 *4:15 *249:A 23 
*END

*D_NET *5 0.000901682
*CONN
*P B[0] I
*I *250:A I *D sky130_fd_sc_hd__buf_1
*CAP
1 B[0] 0.000450841
2 *250:A 0.000450841
3 *246:A *250:A 0
*RES
1 B[0] *250:A 47.3214 
*END

*D_NET *6 0.000787704
*CONN
*P B[1] I
*I *251:A I *D sky130_fd_sc_hd__clkbuf_2
*CAP
1 B[1] 0.000365162
2 *251:A 0
3 *6:17 0.000365162
4 *6:17 *253:A 2.61329e-05
5 *6:17 *40:16 0
6 *3:17 *6:17 0
7 *4:15 *6:17 3.12475e-05
*RES
1 B[1] *6:17 28.3391 
2 *6:17 *251:A 23 
*END

*D_NET *7 0.00100885
*CONN
*P B[2] I
*I *252:A I *D sky130_fd_sc_hd__clkbuf_2
*CAP
1 B[2] 0.000449412
2 *252:A 0.000449412
3 *252:A P[1] 0
4 *252:A *190:A 5.50106e-05
5 *252:A *70:64 5.50106e-05
6 *252:A *81:72 0
*RES
1 B[2] *252:A 47.7357 
*END

*D_NET *8 0.000624379
*CONN
*P B[3] I
*I *253:A I *D sky130_fd_sc_hd__dlymetal6s2s_1
*CAP
1 B[3] 0.000299123
2 *253:A 0.000299123
3 *6:17 *253:A 2.61329e-05
*RES
1 B[3] *253:A 49.8062 
*END

*D_NET *9 0.00192426
*CONN
*P P[0] O
*I *261:X O *D sky130_fd_sc_hd__buf_2
*CAP
1 P[0] 0.00056232
2 *261:X 0.000204854
3 *9:8 0.000767174
4 P[0] P[1] 0
5 P[0] *194:A2 3.51951e-05
6 P[0] *23:10 8.4047e-05
7 P[0] *78:25 0
8 P[0] *82:28 0
9 *9:8 *81:72 0.000270667
10 *247:A P[0] 0
*RES
1 *261:X *9:8 41.0036 
2 *9:8 P[0] 11.5793 
*END

*D_NET *10 0.000949849
*CONN
*P P[1] O
*I *254:X O *D sky130_fd_sc_hd__buf_2
*CAP
1 P[1] 0.000453597
2 *254:X 0.000453597
3 P[1] *24:10 2.30534e-05
4 P[1] *78:25 9.59435e-06
5 P[1] *81:72 1.00084e-05
6 P[0] P[1] 0
7 *252:A P[1] 0
*RES
1 *254:X P[1] 47.3836 
*END

*D_NET *11 0.000527593
*CONN
*P P[2] O
*I *255:X O *D sky130_fd_sc_hd__buf_2
*CAP
1 P[2] 0.000261508
2 *255:X 0.000261508
3 P[2] *70:87 4.57745e-06
*RES
1 *255:X P[2] 47.1648 
*END

*D_NET *12 0.000978553
*CONN
*P P[3] O
*I *256:X O *D sky130_fd_sc_hd__buf_2
*CAP
1 P[3] 0.000390916
2 *256:X 0.000390916
3 P[3] P[4] 8.97484e-05
4 P[3] *27:19 7.46212e-05
5 P[3] *70:87 0
6 P[3] *73:8 3.23515e-05
*RES
1 *256:X P[3] 48.2984 
*END

*D_NET *13 0.000626359
*CONN
*P P[4] O
*I *257:X O *D sky130_fd_sc_hd__buf_2
*CAP
1 P[4] 0.000250691
2 *257:X 0.000250691
3 P[4] P[5] 0
4 P[4] *74:10 3.52294e-05
5 P[3] P[4] 8.97484e-05
*RES
1 *257:X P[4] 47.8691 
*END

*D_NET *14 0.000684131
*CONN
*P P[5] O
*I *258:X O *D sky130_fd_sc_hd__buf_2
*CAP
1 P[5] 0.000342066
2 *258:X 0.000342066
3 P[5] *75:8 0
4 P[4] P[5] 0
*RES
1 *258:X P[5] 48.5734 
*END

*D_NET *15 0.00134589
*CONN
*P P[6] O
*I *259:X O *D sky130_fd_sc_hd__buf_2
*CAP
1 P[6] 6.5784e-05
2 *259:X 0.00059379
3 *15:10 0.000659574
4 *15:10 *242:A_N 3.7122e-06
5 *15:10 *259:A 2.30292e-05
*RES
1 *259:X *15:10 49.5275 
2 *15:10 P[6] 1.50179 
*END

*D_NET *16 0.00100219
*CONN
*P P[7] O
*I *260:X O *D sky130_fd_sc_hd__buf_2
*CAP
1 P[7] 0.000501094
2 *260:X 0.000501094
*RES
1 *260:X P[7] 48.9786 
*END

*D_NET *19 0.00150306
*CONN
*I *206:A I *D sky130_fd_sc_hd__or4b_1
*I *192:A2 I *D sky130_fd_sc_hd__a31o_1
*I *187:Y O *D sky130_fd_sc_hd__inv_2
*CAP
1 *206:A 0.000332884
2 *192:A2 0.000218133
3 *187:Y 7.21402e-05
4 *19:8 0.000623156
5 *192:A2 *194:A2 1.83564e-05
6 *192:A2 *22:47 7.34962e-05
7 *192:A2 *26:23 0
8 *192:A2 *29:10 0
9 *192:A2 *78:77 0
10 *206:A *29:10 0
11 *206:A *34:12 6.48356e-05
12 *206:A *36:8 0
13 *19:8 *29:10 0.000100061
*RES
1 *187:Y *19:8 39.0979 
2 *19:8 *192:A2 41.6664 
3 *19:8 *206:A 43.3443 
*END

*D_NET *20 0.000285109
*CONN
*I *213:A1 I *D sky130_fd_sc_hd__a211oi_1
*I *188:Y O *D sky130_fd_sc_hd__inv_2
*CAP
1 *213:A1 3.69082e-05
2 *188:Y 3.69082e-05
3 *213:A1 *39:8 5.25848e-05
4 *213:A1 *40:8 0.000141052
5 *213:A1 *70:24 1.76557e-05
*RES
1 *188:Y *213:A1 47.5743 
*END

*D_NET *21 0.00252634
*CONN
*I *227:A1 I *D sky130_fd_sc_hd__a211o_1
*I *225:A2 I *D sky130_fd_sc_hd__a31oi_1
*I *206:B I *D sky130_fd_sc_hd__or4b_1
*I *189:Y O *D sky130_fd_sc_hd__inv_2
*CAP
1 *227:A1 5.57329e-05
2 *225:A2 0.00026244
3 *206:B 0.000501251
4 *189:Y 0
5 *21:19 0.000461633
6 *21:6 0.000644712
7 *206:B *79:10 0
8 *206:B *83:32 4.08641e-05
9 *225:A2 *225:B1 4.7812e-06
10 *225:A2 *79:40 7.67478e-05
11 *225:A2 *79:51 6.52117e-05
12 *225:A2 *79:64 0.000128723
13 *225:A2 *80:70 3.04595e-05
14 *227:A1 *53:10 1.01436e-05
15 *227:A1 *79:64 5.50049e-05
16 *227:A1 *80:53 0
17 *227:A1 *80:70 5.50049e-05
18 *227:A1 *83:32 2.24973e-05
19 *21:19 *79:10 0
20 *21:19 *83:32 0.000111138
*RES
1 *189:Y *21:6 38 
2 *21:6 *206:B 44.5871 
3 *21:6 *21:19 2.96214 
4 *21:19 *225:A2 42.5986 
5 *21:19 *227:A1 39.4707 
*END

*D_NET *22 0.0052321
*CONN
*I *214:B I *D sky130_fd_sc_hd__and3_1
*I *217:A2 I *D sky130_fd_sc_hd__a21o_1
*I *194:A2 I *D sky130_fd_sc_hd__a21oi_1
*I *192:B1 I *D sky130_fd_sc_hd__a31o_1
*I *195:A_N I *D sky130_fd_sc_hd__and3b_1
*I *190:X O *D sky130_fd_sc_hd__and3_1
*CAP
1 *214:B 0.000267899
2 *217:A2 0
3 *194:A2 0.000279379
4 *192:B1 8.46032e-05
5 *195:A_N 0
6 *190:X 0.000116429
7 *22:47 0.000477838
8 *22:30 0.000489319
9 *22:19 0.000322004
10 *22:10 0.000237401
11 *22:8 0.000116429
12 *192:B1 *210:C 0
13 *192:B1 *81:55 2.07484e-05
14 *192:B1 *81:72 4.81857e-05
15 *192:B1 *83:22 0.000184407
16 *194:A2 *23:10 0.000135557
17 *194:A2 *78:6 2.93845e-05
18 *194:A2 *78:25 3.22465e-05
19 *194:A2 *81:72 0
20 *194:A2 *82:47 5.12254e-05
21 *214:B *214:C 0.000126697
22 *214:B *26:10 9.9683e-05
23 *214:B *46:10 0.000242134
24 *22:8 *70:77 0
25 *22:8 *78:36 0
26 *22:8 *82:66 4.334e-05
27 *22:8 *83:8 2.54046e-05
28 *22:19 *261:A 5.79559e-05
29 *22:19 *78:40 0.000446281
30 *22:19 *81:72 6.72901e-05
31 *22:19 *83:22 0.000324495
32 *22:19 *83:91 5.47808e-05
33 *22:47 *26:10 0.000404994
34 *22:47 *78:77 0.000318946
35 P[0] *194:A2 3.51951e-05
36 *192:A2 *194:A2 1.83564e-05
37 *192:A2 *22:47 7.34962e-05
*RES
1 *190:X *22:8 40.2579 
2 *22:8 *22:10 15 
3 *22:10 *195:A_N 23 
4 *22:10 *22:19 8.74143 
5 *22:19 *192:B1 25.5479 
6 *22:19 *22:30 15 
7 *22:30 *194:A2 42.7643 
8 *22:30 *22:47 21.6907 
9 *22:47 *217:A2 23 
10 *22:47 *214:B 30.3536 
*END

*D_NET *23 0.000737125
*CONN
*I *192:A3 I *D sky130_fd_sc_hd__a31o_1
*I *191:X O *D sky130_fd_sc_hd__or2_1
*CAP
1 *192:A3 0
2 *191:X 0.000187444
3 *23:10 0.000187444
4 *23:10 *82:47 0.000142634
5 P[0] *23:10 8.4047e-05
6 *194:A2 *23:10 0.000135557
*RES
1 *191:X *23:10 41.48 
2 *23:10 *192:A3 38 
*END

*D_NET *24 0.000777907
*CONN
*I *194:B1 I *D sky130_fd_sc_hd__a21oi_1
*I *193:Y O *D sky130_fd_sc_hd__a22oi_1
*CAP
1 *194:B1 0
2 *193:Y 0.000169306
3 *24:10 0.000169306
4 *24:10 *190:A 5.37348e-06
5 *24:10 *193:A1 0
6 *24:10 *193:B1 0
7 *24:10 *254:A 6.854e-05
8 *24:10 *78:25 0.000177407
9 *24:10 *78:36 2.84288e-05
10 *24:10 *81:72 1.76557e-05
11 *24:10 *82:47 0.000118837
12 P[1] *24:10 2.30534e-05
*RES
1 *193:Y *24:10 27.4743 
2 *24:10 *194:B1 23 
*END

*D_NET *25 0.00134504
*CONN
*I *197:C I *D sky130_fd_sc_hd__and3_1
*I *198:A I *D sky130_fd_sc_hd__xnor2_1
*I *195:X O *D sky130_fd_sc_hd__and3b_1
*CAP
1 *197:C 0.000126129
2 *198:A 5.58758e-05
3 *195:X 7.89542e-05
4 *25:12 0.000383839
5 *25:8 0.000280788
6 *197:C *27:10 3.06338e-05
7 *25:8 *70:77 0.000110913
8 *25:8 *78:46 0
9 *25:12 *26:10 5.3304e-05
10 *25:12 *26:36 0.000224605
*RES
1 *195:X *25:8 39.5536 
2 *25:8 *25:12 19.4329 
3 *25:12 *198:A 24.7607 
4 *25:12 *197:C 25.3614 
*END

*D_NET *26 0.00455735
*CONN
*I *198:B I *D sky130_fd_sc_hd__xnor2_1
*I *206:D_N I *D sky130_fd_sc_hd__or4b_1
*I *200:C I *D sky130_fd_sc_hd__and3_1
*I *196:Y O *D sky130_fd_sc_hd__nand2_1
*CAP
1 *198:B 0
2 *206:D_N 0
3 *200:C 2.254e-05
4 *196:Y 0
5 *26:36 0.000242283
6 *26:23 0.000340905
7 *26:10 0.00120025
8 *26:4 0.00107909
9 *200:C *200:A 3.98834e-05
10 *26:10 *200:A 5.3304e-05
11 *26:10 *214:C 0.000226898
12 *26:10 *217:A1 0.00014196
13 *26:10 *78:77 0.000110077
14 *26:10 *78:79 8.76309e-05
15 *26:23 *201:A 3.3123e-05
16 *26:23 *78:92 3.43144e-05
17 *26:23 *82:28 3.90922e-05
18 *26:23 *82:78 5.88166e-05
19 *26:23 *84:62 5.08899e-05
20 *26:36 *83:97 1.37136e-05
21 *26:36 *83:110 0
22 *192:A2 *26:23 0
23 *214:B *26:10 9.9683e-05
24 *22:47 *26:10 0.000404994
25 *25:12 *26:10 5.3304e-05
26 *25:12 *26:36 0.000224605
*RES
1 *196:Y *26:4 23 
2 *26:4 *26:10 16.0329 
3 *26:10 *200:C 23.4557 
4 *26:10 *26:23 35.7793 
5 *26:23 *206:D_N 23 
6 *26:4 *26:36 33.7286 
7 *26:36 *198:B 23 
*END

*D_NET *27 0.00198726
*CONN
*I *235:A1 I *D sky130_fd_sc_hd__a31o_1
*I *223:A I *D sky130_fd_sc_hd__nand2_1
*I *244:A I *D sky130_fd_sc_hd__or2_1
*I *197:X O *D sky130_fd_sc_hd__and3_1
*CAP
1 *235:A1 0.000257399
2 *223:A 4.24511e-05
3 *244:A 0
4 *197:X 0.000309169
5 *27:19 0.000412294
6 *27:10 0.000421614
7 *235:A1 *220:B 0
8 *235:A1 *224:A 0.000136741
9 *235:A1 *224:B 7.90568e-05
10 *235:A1 *50:14 3.81946e-05
11 *235:A1 *73:8 2.76611e-06
12 *235:A1 *74:10 0
13 *27:10 *51:10 1.19796e-05
14 *27:19 *224:B 5.03449e-05
15 *27:19 *245:A 7.03869e-05
16 *27:19 *51:10 1.62615e-05
17 *27:19 *73:8 3.335e-05
18 P[3] *27:19 7.46212e-05
19 *197:C *27:10 3.06338e-05
*RES
1 *197:X *27:10 43.4686 
2 *27:10 *244:A 38 
3 *27:10 *27:19 3.66643 
4 *27:19 *223:A 38.6214 
5 *27:19 *235:A1 43.2821 
*END

*D_NET *28 0.00185877
*CONN
*I *209:A I *D sky130_fd_sc_hd__xor2_1
*I *208:A I *D sky130_fd_sc_hd__or2_1
*I *237:C I *D sky130_fd_sc_hd__and3_1
*I *199:Y O *D sky130_fd_sc_hd__nand2_1
*CAP
1 *209:A 0
2 *208:A 0.000265274
3 *237:C 0
4 *199:Y 6.21709e-05
5 *28:23 0.000427573
6 *28:12 0.000201484
7 *28:8 0.000101357
8 *208:A *208:B 8.60475e-05
9 *208:A *209:B 0.000138382
10 *208:A *237:A 1.11037e-05
11 *208:A *38:6 3.58084e-06
12 *208:A *38:10 3.22879e-05
13 *28:8 *83:65 0.000109343
14 *28:8 *84:79 8.50366e-05
15 *28:12 *237:A 0.000125186
16 *28:12 *237:B 0.00010432
17 *28:23 *237:A 9.14793e-05
18 *28:23 *237:B 1.41498e-05
*RES
1 *199:Y *28:8 39.5536 
2 *28:8 *28:12 16.4086 
3 *28:12 *237:C 23 
4 *28:12 *28:23 3.335 
5 *28:23 *208:A 27.8264 
6 *28:23 *209:A 23 
*END

*D_NET *29 0.00116448
*CONN
*I *207:A I *D sky130_fd_sc_hd__xor2_1
*I *200:X O *D sky130_fd_sc_hd__and3_1
*CAP
1 *207:A 0
2 *200:X 0.000345848
3 *29:10 0.000345848
4 *29:10 *200:A 6.17437e-06
5 *29:10 *78:77 0.000320032
6 *29:10 *78:79 4.65192e-05
7 *192:A2 *29:10 0
8 *206:A *29:10 0
9 *19:8 *29:10 0.000100061
*RES
1 *200:X *29:10 45.0429 
2 *29:10 *207:A 38 
*END

*D_NET *30 0.000469001
*CONN
*I *205:A0 I *D sky130_fd_sc_hd__mux2_1
*I *201:Y O *D sky130_fd_sc_hd__nand2_1
*CAP
1 *205:A0 0.000173145
2 *201:Y 0.000173145
3 *205:A0 *205:A1 2.07086e-05
4 *205:A0 *205:S 9.84794e-05
5 *205:A0 *45:6 3.52233e-06
*RES
1 *201:Y *205:A0 48.5271 
*END

*D_NET *31 0.0011901
*CONN
*I *216:A1 I *D sky130_fd_sc_hd__a21oi_1
*I *202:Y O *D sky130_fd_sc_hd__nand2_1
*CAP
1 *216:A1 0
2 *202:Y 0.000345806
3 *31:14 0.000345806
4 *31:14 *202:A 5.3304e-05
5 *31:14 *202:B 0.00011587
6 *31:14 *203:A 0.000109901
7 *31:14 *203:C 9.70259e-06
8 *31:14 *215:B1 0.000139346
9 *31:14 *44:8 7.03603e-05
*RES
1 *202:Y *31:14 30.4986 
2 *31:14 *216:A1 23 
*END

*D_NET *32 0.00229303
*CONN
*I *205:S I *D sky130_fd_sc_hd__mux2_1
*I *216:B1 I *D sky130_fd_sc_hd__a21oi_1
*I *204:B I *D sky130_fd_sc_hd__and2_1
*I *203:X O *D sky130_fd_sc_hd__and3_1
*CAP
1 *205:S 0.000320751
2 *216:B1 0
3 *204:B 0.000115316
4 *203:X 6.3059e-05
5 *32:27 0.000764274
6 *32:10 0.000558839
7 *32:8 6.3059e-05
8 *204:B *33:10 2.30292e-05
9 *205:S *201:B 0.000141173
10 *205:S *205:A1 3.90568e-05
11 *205:S *45:6 1.54983e-05
12 *32:8 *80:10 8.62783e-05
13 *32:8 *82:14 4.21594e-06
14 *32:27 *215:B1 0
15 *32:27 *83:32 0
16 *205:A0 *205:S 9.84794e-05
*RES
1 *203:X *32:8 39.2014 
2 *32:8 *32:10 15 
3 *32:10 *204:B 25.4236 
4 *32:10 *32:27 35.51 
5 *32:27 *216:B1 23 
6 *32:27 *205:S 29.7114 
*END

*D_NET *33 0.0010965
*CONN
*I *228:A I *D sky130_fd_sc_hd__nand2_1
*I *229:A I *D sky130_fd_sc_hd__xnor2_1
*I *204:X O *D sky130_fd_sc_hd__and2_1
*CAP
1 *228:A 0
2 *229:A 0.000116562
3 *204:X 0.000214508
4 *33:12 0.000116562
5 *33:10 0.000214508
6 *229:A *228:B 0.000127821
7 *229:A *229:B 5.50049e-05
8 *33:10 *40:16 0.000117249
9 *33:10 *80:10 3.31683e-05
10 *33:10 *80:53 7.8085e-05
11 *204:B *33:10 2.30292e-05
*RES
1 *204:X *33:10 43.3443 
2 *33:10 *33:12 15 
3 *33:12 *229:A 25.5271 
4 *33:12 *228:A 23 
*END

*D_NET *34 0.000752112
*CONN
*I *207:B I *D sky130_fd_sc_hd__xor2_1
*I *206:C I *D sky130_fd_sc_hd__or4b_1
*I *205:X O *D sky130_fd_sc_hd__mux2_1
*CAP
1 *207:B 9.17154e-05
2 *206:C 0
3 *205:X 0
4 *34:12 0.000218093
5 *34:4 0.000309809
6 *207:B *45:6 5.69371e-05
7 *34:12 *45:6 1.07216e-05
8 *34:12 *84:62 0
9 *206:A *34:12 6.48356e-05
*RES
1 *205:X *34:4 23 
2 *34:4 *34:12 33.48 
3 *34:12 *206:C 23 
4 *34:4 *207:B 25.2993 
*END

*D_NET *35 0.00201627
*CONN
*I *231:A I *D sky130_fd_sc_hd__and3_1
*I *232:A I *D sky130_fd_sc_hd__nand3_1
*I *233:A1 I *D sky130_fd_sc_hd__a21oi_1
*I *206:X O *D sky130_fd_sc_hd__or4b_1
*CAP
1 *231:A 4.24251e-05
2 *232:A 0
3 *233:A1 3.62409e-05
4 *206:X 0.00050778
5 *35:23 0.000162083
6 *35:8 0.00066368
7 *231:A *231:C 2.86398e-05
8 *231:A *58:15 6.17437e-06
9 *231:A *66:6 5.79559e-05
10 *233:A1 *37:12 5.79559e-05
11 *233:A1 *37:18 5.56356e-05
12 *233:A1 *58:25 5.79559e-05
13 *35:8 *227:C1 0
14 *35:8 *36:8 0
15 *35:8 *37:18 3.70187e-05
16 *35:8 *38:28 0
17 *35:8 *61:10 0
18 *35:8 *64:10 0
19 *35:8 *83:65 5.12321e-05
20 *35:8 *84:62 0
21 *35:23 *231:B 1.01436e-05
22 *35:23 *241:B1 0
23 *35:23 *37:18 0.000155068
24 *35:23 *58:25 8.62783e-05
25 *35:23 *61:10 0
*RES
1 *206:X *35:8 46.2443 
2 *35:8 *233:A1 39.0979 
3 *35:8 *35:23 17.8793 
4 *35:23 *232:A 23 
5 *35:23 *231:A 24.1186 
*END

*D_NET *36 0.0013484
*CONN
*I *208:B I *D sky130_fd_sc_hd__or2_1
*I *209:B I *D sky130_fd_sc_hd__xor2_1
*I *207:X O *D sky130_fd_sc_hd__xor2_1
*CAP
1 *208:B 3.07422e-05
2 *209:B 7.35692e-05
3 *207:X 0.000449006
4 *36:10 0.000104311
5 *36:8 0.000449006
6 *208:B *38:6 1.73399e-05
7 *36:8 *43:18 0
8 *36:8 *45:12 0
9 *36:8 *48:10 0
10 *206:A *36:8 0
11 *208:A *208:B 8.60475e-05
12 *208:A *209:B 0.000138382
13 *35:8 *36:8 0
*RES
1 *207:X *36:8 46.2443 
2 *36:8 *36:10 15 
3 *36:10 *209:B 24.9471 
4 *36:10 *208:B 24.0979 
*END

*D_NET *37 0.00291442
*CONN
*I *233:A2 I *D sky130_fd_sc_hd__a21oi_1
*I *231:B I *D sky130_fd_sc_hd__and3_1
*I *232:B I *D sky130_fd_sc_hd__nand3_1
*I *208:X O *D sky130_fd_sc_hd__or2_1
*CAP
1 *233:A2 0
2 *231:B 0.000228432
3 *232:B 2.77218e-05
4 *208:X 7.97596e-05
5 *37:18 0.000424748
6 *37:12 0.000324218
7 *37:8 0.000235383
8 *231:B *60:10 0.000146822
9 *231:B *66:6 4.65826e-05
10 *232:B *58:15 2.64616e-05
11 *232:B *66:6 5.3304e-05
12 *37:8 *241:A2 0.000166513
13 *37:8 *38:28 5.01247e-05
14 *37:12 *58:25 4.93812e-05
15 *37:12 *61:18 0.00012103
16 *37:12 *67:14 0.000519911
17 *37:18 *64:10 0
18 *37:18 *67:14 9.8203e-05
19 *233:A1 *37:12 5.79559e-05
20 *233:A1 *37:18 5.56356e-05
21 *35:8 *37:18 3.70187e-05
22 *35:23 *231:B 1.01436e-05
23 *35:23 *37:18 0.000155068
*RES
1 *208:X *37:8 40.2579 
2 *37:8 *37:12 20.8621 
3 *37:12 *37:18 18.7079 
4 *37:18 *232:B 38.6214 
5 *37:18 *231:B 41.7286 
6 *37:12 *233:A2 23 
*END

*D_NET *38 0.00168914
*CONN
*I *241:A1 I *D sky130_fd_sc_hd__a311o_1
*I *220:A I *D sky130_fd_sc_hd__and2_1
*I *221:A I *D sky130_fd_sc_hd__xor2_1
*I *209:X O *D sky130_fd_sc_hd__xor2_1
*CAP
1 *241:A1 0
2 *220:A 5.73146e-05
3 *221:A 0
4 *209:X 7.26287e-05
5 *38:28 0.0002344
6 *38:10 0.000259871
7 *38:6 0.000509585
8 *220:A *220:B 0.000217372
9 *220:A *49:12 1.76557e-05
10 *220:A *50:14 5.67058e-05
11 *38:10 *220:B 5.50106e-05
12 *38:28 *241:A2 0
13 *38:28 *241:B1 5.21127e-05
14 *38:28 *61:10 5.31444e-05
15 *208:A *38:6 3.58084e-06
16 *208:A *38:10 3.22879e-05
17 *208:B *38:6 1.73399e-05
18 *35:8 *38:28 0
19 *37:8 *38:28 5.01247e-05
*RES
1 *209:X *38:6 24.0979 
2 *38:6 *38:10 4.205 
3 *38:10 *221:A 23 
4 *38:10 *220:A 25.5271 
5 *38:6 *38:28 34.3707 
6 *38:28 *241:A1 23 
*END

*D_NET *39 0.000961561
*CONN
*I *213:A2 I *D sky130_fd_sc_hd__a211oi_1
*I *210:Y O *D sky130_fd_sc_hd__nand3b_1
*CAP
1 *213:A2 0
2 *210:Y 0.000202152
3 *39:8 0.000202152
4 *39:8 *211:A 3.22879e-05
5 *39:8 *40:8 1.43862e-05
6 *39:8 *70:14 4.17736e-05
7 *39:8 *70:16 0.000228909
8 *39:8 *70:24 0.000139352
9 *39:8 *83:26 4.79641e-05
10 *213:A1 *39:8 5.25848e-05
*RES
1 *210:Y *39:8 28.8829 
2 *39:8 *213:A2 23 
*END

*D_NET *40 0.00365374
*CONN
*I *213:B1 I *D sky130_fd_sc_hd__a211oi_1
*I *228:B I *D sky130_fd_sc_hd__nand2_1
*I *229:B I *D sky130_fd_sc_hd__xnor2_1
*I *211:X O *D sky130_fd_sc_hd__and4_1
*CAP
1 *213:B1 0
2 *228:B 0.000119232
3 *229:B 2.95294e-05
4 *211:X 0.000262233
5 *40:16 0.000930597
6 *40:8 0.00104407
7 *228:B *57:10 3.22879e-05
8 *228:B *80:70 3.91386e-05
9 *40:8 *70:16 2.93845e-05
10 *40:8 *70:24 2.25419e-05
11 *40:16 *213:C1 0.00010018
12 *40:16 *42:10 0
13 *40:16 *70:24 4.95081e-05
14 *40:16 *80:10 0
15 *40:16 *81:18 0.000166513
16 *40:16 *82:14 0.000160786
17 *40:16 *82:22 1.47563e-05
18 *40:16 *84:10 0.00019747
19 *213:A1 *40:8 0.000141052
20 *229:A *228:B 0.000127821
21 *229:A *229:B 5.50049e-05
22 *3:17 *40:16 0
23 *4:15 *40:16 0
24 *6:17 *40:16 0
25 *33:10 *40:16 0.000117249
26 *39:8 *40:8 1.43862e-05
*RES
1 *211:X *40:8 27.3293 
2 *40:8 *40:16 47.7107 
3 *40:16 *229:B 23.6214 
4 *40:16 *228:B 26.0243 
5 *40:8 *213:B1 23 
*END

*D_NET *41 0.000224196
*CONN
*I *213:C1 I *D sky130_fd_sc_hd__a211oi_1
*I *212:X O *D sky130_fd_sc_hd__and2b_1
*CAP
1 *213:C1 1.19175e-05
2 *212:X 1.19175e-05
3 *213:C1 *70:24 0.00010018
4 *40:16 *213:C1 0.00010018
*RES
1 *212:X *213:C1 47.0979 
*END

*D_NET *42 0.00463527
*CONN
*I *217:B1 I *D sky130_fd_sc_hd__a21o_1
*I *214:C I *D sky130_fd_sc_hd__and3_1
*I *213:Y O *D sky130_fd_sc_hd__a211oi_1
*CAP
1 *217:B1 0
2 *214:C 5.10803e-05
3 *213:Y 0.000165344
4 *42:18 0.00197549
5 *42:10 0.00208976
6 *42:10 *81:10 0
7 *42:18 *70:55 0
8 *42:18 *78:77 0
9 *214:B *214:C 0.000126697
10 *26:10 *214:C 0.000226898
11 *40:16 *42:10 0
*RES
1 *213:Y *42:10 48.7861 
2 *42:10 *42:18 27.1639 
3 *42:18 *214:C 25.8586 
4 *42:18 *217:B1 23 
*END

*D_NET *43 0.000985199
*CONN
*I *218:A_N I *D sky130_fd_sc_hd__nand2b_1
*I *219:B1 I *D sky130_fd_sc_hd__a21o_1
*I *214:X O *D sky130_fd_sc_hd__and3_1
*CAP
1 *218:A_N 6.22175e-05
2 *219:B1 0
3 *214:X 8.95919e-05
4 *43:18 0.000236267
5 *43:10 0.000298484
6 *43:8 8.95919e-05
7 *43:8 *45:12 4.54033e-05
8 *43:8 *46:10 5.61311e-05
9 *43:18 *219:A2 0
10 *43:18 *45:6 3.71251e-05
11 *43:18 *45:12 7.03869e-05
12 *36:8 *43:18 0
*RES
1 *214:X *43:8 40.2579 
2 *43:8 *43:10 15 
3 *43:10 *43:18 34.6607 
4 *43:18 *219:B1 23 
5 *43:10 *218:A_N 24.0979 
*END

*D_NET *44 0.000711016
*CONN
*I *216:A2 I *D sky130_fd_sc_hd__a21oi_1
*I *215:Y O *D sky130_fd_sc_hd__o21ai_1
*CAP
1 *216:A2 0
2 *215:Y 0.000130293
3 *44:8 0.000130293
4 *44:8 *201:B 0.000149562
5 *44:8 *203:A 3.44446e-05
6 *44:8 *215:B1 0.000141052
7 *44:8 *80:31 5.50106e-05
8 *31:14 *44:8 7.03603e-05
*RES
1 *215:Y *44:8 27.3293 
2 *44:8 *216:A2 23 
*END

*D_NET *45 0.00374987
*CONN
*I *222:A I *D sky130_fd_sc_hd__xnor2_1
*I *219:A1 I *D sky130_fd_sc_hd__a21o_1
*I *216:Y O *D sky130_fd_sc_hd__a21oi_1
*CAP
1 *222:A 0.000153219
2 *219:A1 0
3 *216:Y 0.00114222
4 *45:12 0.000264597
5 *45:6 0.00125359
6 *222:A *219:A2 9.84794e-05
7 *222:A *48:10 1.32939e-05
8 *45:6 *201:B 0.000358425
9 *45:6 *205:A1 0.000183908
10 *45:12 *219:A2 4.25439e-05
11 *205:A0 *45:6 3.52233e-06
12 *205:S *45:6 1.54983e-05
13 *207:B *45:6 5.69371e-05
14 *34:12 *45:6 1.07216e-05
15 *36:8 *45:12 0
16 *43:8 *45:12 4.54033e-05
17 *43:18 *45:6 3.71251e-05
18 *43:18 *45:12 7.03869e-05
*RES
1 *216:Y *45:6 38.8671 
2 *45:6 *45:12 32.9621 
3 *45:12 *219:A1 23 
4 *45:12 *222:A 26.045 
*END

*D_NET *46 0.0013652
*CONN
*I *219:A2 I *D sky130_fd_sc_hd__a21o_1
*I *218:B I *D sky130_fd_sc_hd__nand2b_1
*I *217:X O *D sky130_fd_sc_hd__a21o_1
*CAP
1 *219:A2 0.000215546
2 *218:B 9.94693e-06
3 *217:X 0.000198142
4 *46:10 0.000423635
5 *218:B *47:10 6.39489e-06
6 *219:A2 *47:10 6.6869e-05
7 *219:A2 *48:10 5.37348e-06
8 *214:B *46:10 0.000242134
9 *222:A *219:A2 9.84794e-05
10 *43:8 *46:10 5.61311e-05
11 *43:18 *219:A2 0
12 *45:12 *219:A2 4.25439e-05
*RES
1 *217:X *46:10 42.6607 
2 *46:10 *218:B 38.1502 
3 *46:10 *219:A2 42.9507 
*END

*D_NET *47 0.000566898
*CONN
*I *222:B I *D sky130_fd_sc_hd__xnor2_1
*I *218:Y O *D sky130_fd_sc_hd__nand2b_1
*CAP
1 *222:B 0
2 *218:Y 0.000246817
3 *47:10 0.000246817
4 *218:B *47:10 6.39489e-06
5 *219:A2 *47:10 6.6869e-05
*RES
1 *218:Y *47:10 41.8321 
2 *47:10 *222:B 38 
*END

*D_NET *48 0.00278259
*CONN
*I *221:B I *D sky130_fd_sc_hd__xor2_1
*I *241:A2 I *D sky130_fd_sc_hd__a311o_1
*I *220:B I *D sky130_fd_sc_hd__and2_1
*I *219:X O *D sky130_fd_sc_hd__a21o_1
*CAP
1 *221:B 0
2 *241:A2 0.000323771
3 *220:B 0.000187817
4 *219:X 0.000441885
5 *48:23 0.000369757
6 *48:10 0.000675687
7 *220:B *50:14 6.09235e-05
8 *241:A2 *240:B1 2.4754e-05
9 *241:A2 *240:C1 9.84794e-05
10 *241:A2 *49:12 0
11 *241:A2 *59:14 0.000141954
12 *219:A2 *48:10 5.37348e-06
13 *220:A *220:B 0.000217372
14 *222:A *48:10 1.32939e-05
15 *235:A1 *220:B 0
16 *36:8 *48:10 0
17 *37:8 *241:A2 0.000166513
18 *38:10 *220:B 5.50106e-05
19 *38:28 *241:A2 0
*RES
1 *219:X *48:10 44.8979 
2 *48:10 *220:B 42.4536 
3 *48:10 *48:23 0.849286 
4 *48:23 *241:A2 45.2707 
5 *48:23 *221:B 38 
*END

*D_NET *49 0.00160575
*CONN
*I *235:B1 I *D sky130_fd_sc_hd__a31o_1
*I *240:A1 I *D sky130_fd_sc_hd__o211a_1
*I *220:X O *D sky130_fd_sc_hd__and2_1
*CAP
1 *235:B1 0
2 *240:A1 0
3 *220:X 0
4 *49:25 0.000173959
5 *49:12 0.000418584
6 *49:4 0.000592543
7 *49:12 *240:A2 6.16531e-05
8 *49:12 *242:A_N 1.59312e-05
9 *49:12 *50:14 0.000124206
10 *49:12 *61:18 8.4047e-05
11 *49:12 *67:14 5.36457e-05
12 *49:25 *224:B 0
13 *49:25 *235:A3 4.21594e-06
14 *49:25 *50:14 5.93127e-05
15 *220:A *49:12 1.76557e-05
16 *241:A2 *49:12 0
*RES
1 *220:X *49:4 23 
2 *49:4 *49:12 37.7264 
3 *49:12 *240:A1 23 
4 *49:4 *49:25 32.7757 
5 *49:25 *235:B1 23 
*END

*D_NET *50 0.00123887
*CONN
*I *224:A I *D sky130_fd_sc_hd__xnor2_1
*I *235:A2 I *D sky130_fd_sc_hd__a31o_1
*I *221:X O *D sky130_fd_sc_hd__xor2_1
*CAP
1 *224:A 0.000146115
2 *235:A2 0
3 *221:X 0.000185187
4 *50:14 0.000331303
5 *224:A *224:B 0.00010018
6 *220:A *50:14 5.67058e-05
7 *220:B *50:14 6.09235e-05
8 *235:A1 *224:A 0.000136741
9 *235:A1 *50:14 3.81946e-05
10 *49:12 *50:14 0.000124206
11 *49:25 *50:14 5.93127e-05
*RES
1 *221:X *50:14 29.1936 
2 *50:14 *235:A2 23 
3 *50:14 *224:A 26.6457 
*END

*D_NET *51 0.00178803
*CONN
*I *244:B I *D sky130_fd_sc_hd__or2_1
*I *235:A3 I *D sky130_fd_sc_hd__a31o_1
*I *223:B I *D sky130_fd_sc_hd__nand2_1
*I *222:Y O *D sky130_fd_sc_hd__xnor2_1
*CAP
1 *244:B 6.53651e-05
2 *235:A3 0.000102135
3 *223:B 0
4 *222:Y 0.000335889
5 *51:10 0.00026182
6 *51:6 0.000560939
7 *235:A3 *224:B 0.000196549
8 *244:B *245:A 5.37348e-06
9 *51:10 *224:B 8.33866e-05
10 *51:10 *245:A 0.00014411
11 *27:10 *51:10 1.19796e-05
12 *27:19 *51:10 1.62615e-05
13 *49:25 *235:A3 4.21594e-06
*RES
1 *222:Y *51:6 27.4329 
2 *51:6 *51:10 19.0186 
3 *51:10 *223:B 38 
4 *51:10 *235:A3 40.61 
5 *51:6 *244:B 24.1186 
*END

*D_NET *52 0.00182182
*CONN
*I *224:B I *D sky130_fd_sc_hd__xnor2_1
*I *245:A I *D sky130_fd_sc_hd__and2_1
*I *223:Y O *D sky130_fd_sc_hd__nand2_1
*CAP
1 *224:B 0.000200505
2 *245:A 0.000273884
3 *223:Y 0
4 *52:6 0.000474389
5 *245:A *245:B 0.000143655
6 *224:A *224:B 0.00010018
7 *235:A1 *224:B 7.90568e-05
8 *235:A3 *224:B 0.000196549
9 *244:B *245:A 5.37348e-06
10 *27:19 *224:B 5.03449e-05
11 *27:19 *245:A 7.03869e-05
12 *49:25 *224:B 0
13 *51:10 *224:B 8.33866e-05
14 *51:10 *245:A 0.00014411
*RES
1 *223:Y *52:6 38 
2 *52:6 *245:A 44.3386 
3 *52:6 *224:B 43.7379 
*END

*D_NET *53 0.000787134
*CONN
*I *227:B1 I *D sky130_fd_sc_hd__a211o_1
*I *225:Y O *D sky130_fd_sc_hd__a31oi_1
*CAP
1 *227:B1 0
2 *225:Y 0.000102566
3 *53:10 0.000102566
4 *53:10 *55:10 5.67058e-05
5 *53:10 *80:70 0.000269775
6 *53:10 *83:32 6.16439e-05
7 *53:10 *83:42 0.000183733
8 *227:A1 *53:10 1.01436e-05
*RES
1 *225:Y *53:10 41.8529 
2 *53:10 *227:B1 38 
*END

*D_NET *54 0.00159681
*CONN
*I *243:C1 I *D sky130_fd_sc_hd__a211o_1
*I *227:C1 I *D sky130_fd_sc_hd__a211o_1
*I *226:X O *D sky130_fd_sc_hd__and4_1
*CAP
1 *243:C1 0.000208065
2 *227:C1 0.000140524
3 *226:X 0
4 *54:6 0.00034859
5 *227:C1 *64:10 6.07611e-06
6 *227:C1 *79:64 0.000228909
7 *227:C1 *80:70 0.000227208
8 *227:C1 *83:32 0
9 *243:C1 *239:B 9.84794e-05
10 *243:C1 *243:A1 9.84794e-05
11 *243:C1 *243:B1 6.95768e-05
12 *243:C1 *64:10 0.000170899
13 *35:8 *227:C1 0
*RES
1 *226:X *54:6 38 
2 *54:6 *227:C1 41.7286 
3 *54:6 *243:C1 43.8207 
*END

*D_NET *55 0.00157938
*CONN
*I *230:A I *D sky130_fd_sc_hd__xnor2_1
*I *238:A1 I *D sky130_fd_sc_hd__o21ai_1
*I *227:X O *D sky130_fd_sc_hd__a211o_1
*CAP
1 *230:A 0
2 *238:A1 0.000160894
3 *227:X 0.000336921
4 *55:12 0.000160894
5 *55:10 0.000336921
6 *238:A1 *230:B 0.000152136
7 *238:A1 *65:10 0.000140259
8 *55:10 *56:8 0.000117249
9 *55:10 *80:70 0.000117401
10 *53:10 *55:10 5.67058e-05
*RES
1 *227:X *55:10 44.7736 
2 *55:10 *55:12 15 
3 *55:12 *238:A1 27.1429 
4 *55:12 *230:A 23 
*END

*D_NET *56 0.000645857
*CONN
*I *238:B1 I *D sky130_fd_sc_hd__o21ai_1
*I *228:Y O *D sky130_fd_sc_hd__nand2_1
*CAP
1 *238:B1 0
2 *228:Y 0.000175341
3 *56:8 0.000175341
4 *56:8 *57:10 0.000177925