*SPEF "ieee 1481-1999"
*DESIGN "mult4_SARSA_RUIDO_e9_SarsaNStepsRuido_e9_SarsaNStepsRuido_e9_SARSA_RUIDO_e9"
*DATE "11:53:35 Wednesday September 17, 2025"
*VENDOR "The OpenROAD Project"
*PROGRAM "OpenROAD"
*VERSION "edf00dff99f6c40d67a30c0e22a8191c5d2ed9d6"
*DESIGN_FLOW "NAME_SCOPE LOCAL" "PIN_CAP NONE"
*DIVIDER /
*DELIMITER :
*BUS_DELIMITER []
*T_UNIT 1 NS
*C_UNIT 1 PF
*R_UNIT 1 OHM
*L_UNIT 1 HENRY

*NAME_MAP
*1 A[0]
*2 A[1]
*3 A[2]
*4 A[3]
*5 B[0]
*6 B[1]
*7 B[2]
*8 B[3]
*9 P[0]
*10 P[1]
*11 P[2]
*12 P[3]
*13 P[4]
*14 P[5]
*15 P[6]
*16 P[7]
*19 _00_
*20 _01_
*21 _02_
*22 _03_
*23 _04_
*24 _05_
*25 _06_
*26 _07_
*27 _08_
*28 _09_
*29 _10_
*30 _11_
*31 _12_
*32 _13_
*33 _14_
*34 _15_
*35 _16_
*36 _17_
*37 _18_
*38 _19_
*39 _20_
*40 _21_
*41 _22_
*42 _23_
*43 _24_
*44 _25_
*45 _26_
*46 _27_
*47 _28_
*48 _29_
*49 _30_
*50 _31_
*51 _32_
*52 _33_
*53 _34_
*54 _35_
*55 _36_
*56 _37_
*57 _38_
*58 _39_
*59 _40_
*60 _41_
*61 _42_
*62 _43_
*63 net1
*64 net10
*65 net11
*66 net12
*67 net13
*68 net14
*69 net15
*70 net16
*71 net17
*72 net2
*73 net3
*74 net4
*75 net5
*76 net6
*77 net7
*78 net8
*79 net9
*80 FILLER_0_23
*81 FILLER_0_29
*82 FILLER_0_3
*83 FILLER_0_35
*84 FILLER_0_48
*85 FILLER_0_65
*86 FILLER_0_77
*87 FILLER_1_21
*88 FILLER_1_39
*89 FILLER_1_46
*90 FILLER_1_52
*91 FILLER_1_57
*92 FILLER_1_69
*93 FILLER_1_7
*94 FILLER_2_17
*95 FILLER_2_25
*96 FILLER_2_29
*97 FILLER_2_33
*98 FILLER_2_45
*99 FILLER_2_57
*100 FILLER_2_69
*101 FILLER_2_7
*102 FILLER_3_21
*103 FILLER_3_3
*104 FILLER_3_38
*105 FILLER_3_43
*106 FILLER_3_50
*107 FILLER_3_55
*108 FILLER_4_13
*109 FILLER_4_25
*110 FILLER_4_29
*111 FILLER_4_41
*112 FILLER_4_53
*113 FILLER_4_65
*114 FILLER_4_7
*115 FILLER_4_71
*116 FILLER_5_12
*117 FILLER_5_20
*118 FILLER_5_28
*119 FILLER_5_34
*120 FILLER_5_38
*121 FILLER_5_51
*122 FILLER_5_55
*123 FILLER_5_57
*124 FILLER_5_7
*125 FILLER_5_78
*126 FILLER_6_20
*127 FILLER_6_29
*128 FILLER_6_3
*129 FILLER_6_35
*130 FILLER_6_48
*131 FILLER_6_61
*132 FILLER_6_69
*133 FILLER_6_79
*134 FILLER_7_17
*135 FILLER_7_29
*136 FILLER_7_42
*137 FILLER_7_51
*138 FILLER_7_55
*139 FILLER_7_57
*140 FILLER_7_69
*141 FILLER_8_11
*142 FILLER_8_27
*143 FILLER_8_3
*144 FILLER_8_40
*145 FILLER_8_52
*146 FILLER_8_64
*147 FILLER_8_75
*148 FILLER_9_15
*149 FILLER_9_27
*150 FILLER_9_3
*151 FILLER_9_36
*152 FILLER_9_42
*153 FILLER_9_54
*154 FILLER_9_57
*155 FILLER_9_69
*156 PHY_EDGE_ROW_0_Left_10
*157 PHY_EDGE_ROW_0_Right_0
*158 PHY_EDGE_ROW_1_Left_11
*159 PHY_EDGE_ROW_1_Right_1
*160 PHY_EDGE_ROW_2_Left_12
*161 PHY_EDGE_ROW_2_Right_2
*162 PHY_EDGE_ROW_3_Left_13
*163 PHY_EDGE_ROW_3_Right_3
*164 PHY_EDGE_ROW_4_Left_14
*165 PHY_EDGE_ROW_4_Right_4
*166 PHY_EDGE_ROW_5_Left_15
*167 PHY_EDGE_ROW_5_Right_5
*168 PHY_EDGE_ROW_6_Left_16
*169 PHY_EDGE_ROW_6_Right_6
*170 PHY_EDGE_ROW_7_Left_17
*171 PHY_EDGE_ROW_7_Right_7
*172 PHY_EDGE_ROW_8_Left_18
*173 PHY_EDGE_ROW_8_Right_8
*174 PHY_EDGE_ROW_9_Left_19
*175 PHY_EDGE_ROW_9_Right_9
*176 TAP_TAPCELL_ROW_0_20
*177 TAP_TAPCELL_ROW_0_21
*178 TAP_TAPCELL_ROW_1_22
*179 TAP_TAPCELL_ROW_2_23
*180 TAP_TAPCELL_ROW_3_24
*181 TAP_TAPCELL_ROW_4_25
*182 TAP_TAPCELL_ROW_5_26
*183 TAP_TAPCELL_ROW_6_27
*184 TAP_TAPCELL_ROW_7_28
*185 TAP_TAPCELL_ROW_8_29
*186 TAP_TAPCELL_ROW_9_30
*187 TAP_TAPCELL_ROW_9_31
*188 _44_
*189 _45_
*190 _46_
*191 _47_
*192 _48_
*193 _49_
*194 _50_
*195 _51_
*196 _52_
*197 _53_
*198 _54_
*199 _55_
*200 _56_
*201 _57_
*202 _58_
*203 _59_
*204 _60_
*205 _61_
*206 _62_
*207 _63_
*208 _64_
*209 _65_
*210 _66_
*211 _67_
*212 _68_
*213 _69_
*214 _70_
*215 _71_
*216 _72_
*217 _73_
*218 _74_
*219 _75_
*220 _76_
*221 _77_
*222 _78_
*223 _79_
*224 _80_
*225 _81_
*226 _82_
*227 _83_
*228 _84_
*229 _85_
*230 _86_
*231 _87_
*232 _88_
*233 _89_
*234 _90_
*235 _91_
*236 _92_
*237 _93_
*238 _94_
*239 _95_
*240 input1
*241 input2
*242 input3
*243 input4
*244 input5
*245 input6
*246 input7
*247 input8
*248 max_cap17
*249 output10
*250 output11
*251 output12
*252 output13
*253 output14
*254 output15
*255 output16
*256 output9

*PORTS
A[0] I
A[1] I
A[2] I
A[3] I
B[0] I
B[1] I
B[2] I
B[3] I
P[0] O
P[1] O
P[2] O
P[3] O
P[4] O
P[5] O
P[6] O
P[7] O

*D_NET *1 0.0016315
*CONN
*P A[0] I
*I *240:A I *D sky130_fd_sc_hd__buf_1
*CAP
1 A[0] 0.000598577
2 *240:A 0
3 *1:11 0.000598577
4 *1:11 P[1] 0
5 *1:11 *20:8 0.000188926
6 *1:11 *63:14 2.26489e-05
7 *1:11 *76:12 0.000136486
8 *1:11 *76:36 8.62876e-05
*RES
1 A[0] *1:11 28.1121 
2 *1:11 *240:A 23 
*END

*D_NET *2 0.000996736
*CONN
*P A[1] I
*I *241:A I *D sky130_fd_sc_hd__clkbuf_2
*CAP
1 A[1] 0.000448813
2 *241:A 0.000448813
3 *241:A P[1] 0
4 *241:A *244:A 0
5 *241:A *75:16 9.91101e-05
*RES
1 A[1] *241:A 47.4457 
*END

*D_NET *3 0.000768284
*CONN
*P A[2] I
*I *242:A I *D sky130_fd_sc_hd__clkbuf_2
*CAP
1 A[2] 0.000355741
2 *242:A 0
3 *3:17 0.000355741
4 *3:17 *4:11 2.79122e-05
5 *3:17 *8:17 2.88889e-05
6 *3:17 *78:8 0
*RES
1 A[2] *3:17 28.3391 
2 *3:17 *242:A 23 
*END

*D_NET *4 0.00158597
*CONN
*P A[3] I
*I *243:A I *D sky130_fd_sc_hd__buf_1
*CAP
1 A[3] 0.000514262
2 *243:A 0
3 *4:11 0.000514262
4 *4:11 P[7] 1.5289e-05
5 *4:11 *194:B 7.23795e-05
6 *4:11 *16:14 1.59585e-05
7 *4:11 *19:10 0
8 *4:11 *45:18 0.000237265
9 *4:11 *74:10 8.4047e-05
10 *4:11 *74:12 8.4047e-05
11 *4:11 *77:62 2.05503e-05
12 *3:17 *4:11 2.79122e-05
*RES
1 A[3] *4:11 28.296 
2 *4:11 *243:A 23 
*END

*D_NET *5 0.000944739
*CONN
*P B[0] I
*I *244:A I *D sky130_fd_sc_hd__dlymetal6s2s_1
*CAP
1 B[0] 0.000444864
2 *244:A 0.000444864
3 *244:A *75:16 5.50106e-05
4 *241:A *244:A 0
*RES
1 B[0] *244:A 47.3214 
*END

*D_NET *6 0.000710781
*CONN
*P B[1] I
*I *245:A I *D sky130_fd_sc_hd__clkbuf_2
*CAP
1 B[1] 0.000342324
2 *245:A 0
3 *6:17 0.000342324
4 *6:17 *7:17 2.61329e-05
5 *6:17 *75:30 0
*RES
1 B[1] *6:17 27.6348 
2 *6:17 *245:A 23 
*END

*D_NET *7 0.000724675
*CONN
*P B[2] I
*I *246:A I *D sky130_fd_sc_hd__clkbuf_2
*CAP
1 B[2] 0.000336204
2 *246:A 0
3 *7:17 0.000336204
4 *7:17 *8:17 2.61329e-05
5 *6:17 *7:17 2.61329e-05
*RES
1 B[2] *7:17 27.6348 
2 *7:17 *246:A 23 
*END

*D_NET *8 0.000786791
*CONN
*P B[3] I
*I *247:A I *D sky130_fd_sc_hd__clkbuf_2
*CAP
1 B[3] 0.000365885
2 *247:A 0
3 *8:17 0.000365885
4 *8:17 *194:B 0
5 *3:17 *8:17 2.88889e-05
6 *7:17 *8:17 2.61329e-05
*RES
1 B[3] *8:17 28.3391 
2 *8:17 *247:A 23 
*END

*D_NET *9 0.00155275
*CONN
*P P[0] O
*I *256:X O *D sky130_fd_sc_hd__buf_2
*CAP
1 P[0] 0.000387768
2 *256:X 0.000197703
3 *9:10 0.000585471
4 P[0] P[2] 0
5 P[0] *193:C 1.19692e-05
6 *9:10 *193:C 5.50049e-05
7 *9:10 *250:A 4.5051e-05
8 *9:10 *256:A 0.000269781
*RES
1 *256:X *9:10 42.4536 
2 *9:10 P[0] 8.34786 
*END

*D_NET *10 0.001095
*CONN
*P P[1] O
*I *249:X O *D sky130_fd_sc_hd__buf_2
*CAP
1 P[1] 0.000476522
2 *249:X 0.000476522
3 P[1] *75:16 0.00014196
4 *241:A P[1] 0
5 *1:11 P[1] 0
*RES
1 *249:X P[1] 47.57 
*END

*D_NET *11 0.00135923
*CONN
*P P[2] O
*I *250:X O *D sky130_fd_sc_hd__buf_2
*CAP
1 P[2] 0.000608636
2 *250:X 0.000608636
3 P[2] *193:C 0
4 P[2] *250:A 0.00014196
5 P[0] P[2] 0
*RES
1 *250:X P[2] 49.9314 
*END

*D_NET *12 0.000819724
*CONN
*P P[3] O
*I *251:X O *D sky130_fd_sc_hd__buf_2
*CAP
1 P[3] 0.000346336
2 *251:X 0.000346336
3 P[3] P[4] 0
4 P[3] *66:8 0.000127051
*RES
1 *251:X P[3] 48.5734 
*END

*D_NET *13 0.00119091
*CONN
*P P[4] O
*I *252:X O *D sky130_fd_sc_hd__buf_2
*CAP
1 P[4] 0.000267875
2 *252:X 0.000300205
3 *13:12 0.000568079
4 P[4] P[5] 0
5 *13:12 *252:A 3.22879e-05
6 *13:12 *43:12 2.24608e-05
7 P[3] P[4] 0
*RES
1 *252:X *13:12 49.8011 
2 *13:12 P[4] 0.9296 
*END

*D_NET *14 0.000675947
*CONN
*P P[5] O
*I *253:X O *D sky130_fd_sc_hd__buf_2
*CAP
1 P[5] 0.000337973
2 *253:X 0.000337973
3 P[5] *68:8 0
4 P[4] P[5] 0
*RES
1 *253:X P[5] 48.5734 
*END

*D_NET *15 0.00100375
*CONN
*P P[6] O
*I *254:X O *D sky130_fd_sc_hd__buf_2
*CAP
1 P[6] 0.000501876
2 *254:X 0.000501876
*RES
1 *254:X P[6] 48.9786 
*END

*D_NET *16 0.000761479
*CONN
*P P[7] O
*I *255:X O *D sky130_fd_sc_hd__buf_2
*CAP
1 P[7] 8.65766e-05
2 *255:X 0.000278539
3 *16:14 0.000365116
4 *4:11 P[7] 1.5289e-05
5 *4:11 *16:14 1.59585e-05
*RES
1 *255:X *16:14 49.9 
2 *16:14 P[7] 0.382667 
*END

*D_NET *19 0.000527643
*CONN
*I *219:A2 I *D sky130_fd_sc_hd__a211o_1
*I *188:Y O *D sky130_fd_sc_hd__inv_2
*CAP
1 *219:A2 0
2 *188:Y 0.000166032
3 *19:10 0.000166032
4 *19:10 *45:18 0
5 *19:10 *46:8 3.3746e-05
6 *19:10 *73:28 0.00010018
7 *19:10 *77:62 0
8 *19:10 *77:81 6.16531e-05
9 *4:11 *19:10 0
*RES
1 *188:Y *19:10 41.0036 
2 *19:10 *219:A2 38 
*END

*D_NET *20 0.000729627
*CONN
*I *192:A I *D sky130_fd_sc_hd__nor2_1
*I *190:Y O *D sky130_fd_sc_hd__a22oi_1
*CAP
1 *192:A 8.8333e-05
2 *190:Y 8.84902e-05
3 *20:8 0.000176823
4 *192:A *200:A2 0
5 *192:A *64:10 9.41704e-05
6 *20:8 *63:14 9.28842e-05
7 *1:11 *20:8 0.000188926
*RES
1 *190:Y *20:8 40.61 
2 *20:8 *192:A 39.595 
*END

*D_NET *21 0.000432195
*CONN
*I *192:B I *D sky130_fd_sc_hd__nor2_1
*I *191:X O *D sky130_fd_sc_hd__o211a_1
*CAP
1 *192:B 0
2 *191:X 0.000148686
3 *21:10 0.000148686
4 *21:10 *191:B1 5.67058e-05
5 *21:10 *75:30 0
6 *21:10 *76:12 3.83778e-05
7 *21:10 *76:36 3.97399e-05
*RES
1 *191:X *21:10 40.8793 
2 *21:10 *192:B 38 
*END

*D_NET *22 0.00567109
*CONN
*I *205:A1 I *D sky130_fd_sc_hd__o31a_1
*I *204:A I *D sky130_fd_sc_hd__nor4_1
*I *212:S I *D sky130_fd_sc_hd__mux2_1
*I *221:A2 I *D sky130_fd_sc_hd__a21oi_1
*I *220:B I *D sky130_fd_sc_hd__and3_1
*I *194:X O *D sky130_fd_sc_hd__and3_1
*CAP
1 *205:A1 0
2 *204:A 3.48317e-05
3 *212:S 7.49859e-06
4 *221:A2 0
5 *220:B 0
6 *194:X 0.00011059
7 *22:61 0.000291011
8 *22:36 0.00108042
9 *22:17 0.000996572
10 *22:6 0.000290419
11 *204:A *204:B 0.00015507
12 *204:A *204:D 4.52959e-05
13 *204:A *33:12 5.67058e-05
14 *212:S *23:10 4.00259e-06
15 *22:6 *220:A 1.02949e-05
16 *22:17 *220:A 3.43893e-05
17 *22:17 *220:C 6.58156e-05
18 *22:17 *221:A1 4.08664e-05
19 *22:17 *47:10 4.05745e-05
20 *22:17 *48:10 9.67842e-05
21 *22:36 *195:A 0.000270373
22 *22:36 *196:A1 0.000298044
23 *22:36 *196:B1 4.25611e-05
24 *22:36 *210:A0 9.65021e-05
25 *22:36 *210:S 1.59094e-05
26 *22:36 *212:A1 0.000357724
27 *22:36 *23:10 0.000365366
28 *22:36 *24:6 0.000505411
29 *22:36 *37:10 2.47128e-05
30 *22:36 *39:12 3.43312e-05
31 *22:61 *204:B 1.56762e-05
32 *22:61 *204:D 0.0001096
33 *22:61 *212:A1 0
34 *22:61 *23:10 9.01426e-05
35 *22:61 *30:10 2.58197e-05
36 *22:61 *31:8 2.76611e-06
37 *22:61 *31:12 5.50106e-05
*RES
1 *194:X *22:6 24.5743 
2 *22:6 *220:B 23 
3 *22:6 *22:17 4.35 
4 *22:17 *221:A2 23 
5 *22:17 *22:36 22.91 
6 *22:36 *212:S 23.4971 
7 *22:36 *22:61 35.0543 
8 *22:61 *204:A 25.0714 
9 *22:61 *205:A1 23 
*END

*D_NET *23 0.0019716
*CONN
*I *205:A2 I *D sky130_fd_sc_hd__o31a_1
*I *204:B I *D sky130_fd_sc_hd__nor4_1
*I *195:Y O *D sky130_fd_sc_hd__nor2_1
*CAP
1 *205:A2 0
2 *204:B 4.73713e-05
3 *195:Y 0.000138252
4 *23:10 0.000185623
5 *204:B *204:C 0.000228909
6 *204:B *205:A3 1.14154e-05
7 *204:B *33:12 2.4754e-05
8 *23:10 *204:C 2.32004e-05
9 *23:10 *204:D 1.72202e-05
10 *23:10 *205:A3 5.90675e-06
11 *23:10 *24:6 0.000580136
12 *23:10 *31:12 7.85565e-05
13 *204:A *204:B 0.00015507
14 *212:S *23:10 4.00259e-06
15 *22:36 *23:10 0.000365366
16 *22:61 *204:B 1.56762e-05
17 *22:61 *23:10 9.01426e-05
*RES
1 *195:Y *23:10 30.9336 
2 *23:10 *204:B 26.0243 
3 *23:10 *205:A2 23 
*END

*D_NET *24 0.00334456
*CONN
*I *204:C I *D sky130_fd_sc_hd__nor4_1
*I *205:A3 I *D sky130_fd_sc_hd__o31a_1
*I *196:Y O *D sky130_fd_sc_hd__a21oi_1
*CAP
1 *204:C 0.00020463
2 *205:A3 1.89322e-05
3 *196:Y 0.000762401
4 *24:6 0.000985963
5 *204:C *33:12 1.76557e-05
6 *204:B *204:C 0.000228909
7 *204:B *205:A3 1.14154e-05
8 *22:36 *24:6 0.000505411
9 *23:10 *204:C 2.32004e-05
10 *23:10 *205:A3 5.90675e-06
11 *23:10 *24:6 0.000580136
*RES
1 *196:Y *24:6 35.5321 
2 *24:6 *205:A3 23.4971 
3 *24:6 *204:C 26.48 
*END

*D_NET *25 0.00131184
*CONN
*I *202:A I *D sky130_fd_sc_hd__nor2_1
*I *203:A I *D sky130_fd_sc_hd__xnor2_1
*I *197:Y O *D sky130_fd_sc_hd__nand3_1
*CAP
1 *202:A 7.42003e-05
2 *203:A 0
3 *197:Y 0.000239756
4 *25:8 0.000313956
5 *202:A *202:B 0.000230604
6 *25:8 *202:B 5.14208e-05
7 *25:8 *29:10 0.000401899
*RES
1 *197:Y *25:8 28.7586 
2 *25:8 *203:A 23 
3 *25:8 *202:A 25.5271 
*END

*D_NET *26 0.00174987
*CONN
*I *201:A I *D sky130_fd_sc_hd__or3_1
*I *210:S I *D sky130_fd_sc_hd__mux2_1
*I *198:X O *D sky130_fd_sc_hd__and3_1
*CAP
1 *201:A 0.00014217
2 *210:S 0.000351191
3 *198:X 9.16189e-05
4 *26:10 0.00058498
5 *210:S *201:C 9.17419e-06
6 *210:S *36:8 8.62783e-05
7 *210:S *72:60 0.000218448
8 *210:S *77:53 0.000109024
9 *210:S *78:59 3.01561e-05
10 *26:10 *27:8 5.56336e-05
11 *26:10 *72:32 1.01436e-05
12 *26:10 *72:60 4.51431e-05
13 *26:10 *75:53 0
14 *22:36 *210:S 1.59094e-05
*RES
1 *198:X *26:10 39.2946 
2 *26:10 *210:S 44.7218 
3 *26:10 *201:A 39.8954 
*END

*D_NET *27 0.000802296
*CONN
*I *201:B I *D sky130_fd_sc_hd__or3_1
*I *199:Y O *D sky130_fd_sc_hd__nor2_1
*CAP
1 *201:B 0
2 *199:Y 0.00024658
3 *27:8 0.00024658
4 *27:8 *200:A2 2.30292e-05
5 *27:8 *63:45 4.45672e-05
6 *27:8 *63:54 1.76557e-05
7 *27:8 *72:44 0.000141954
8 *27:8 *77:53 2.62955e-05
9 *26:10 *27:8 5.56336e-05
*RES
1 *199:Y *27:8 28.4064 
2 *27:8 *201:B 23 
*END

*D_NET *28 0.00110597
*CONN
*I *201:C I *D sky130_fd_sc_hd__or3_1
*I *200:Y O *D sky130_fd_sc_hd__a21oi_1
*CAP
1 *201:C 3.12715e-05
2 *200:Y 0.000346973
3 *28:14 0.000378244
4 *28:14 *63:45 5.83128e-05
5 *28:14 *63:54 1.24376e-05
6 *28:14 *63:68 0.000263546
7 *28:14 *72:60 6.00862e-06
8 *28:14 *78:74 0
9 *210:S *201:C 9.17419e-06
*RES
1 *200:Y *28:14 47.9021 
2 *28:14 *201:C 46.5179 
*END

*D_NET *29 0.00258137
*CONN
*I *202:B I *D sky130_fd_sc_hd__nor2_1
*I *203:B I *D sky130_fd_sc_hd__xnor2_1
*I *201:X O *D sky130_fd_sc_hd__or3_1
*CAP
1 *202:B 0.000211896
2 *203:B 0
3 *201:X 0.000475613
4 *29:10 0.000687509
5 *202:B *30:10 5.67058e-05
6 *29:10 *197:A 0.000141954
7 *29:10 *75:53 5.56356e-05
8 *29:10 *75:66 0.000221537
9 *29:10 *79:6 4.6595e-05
10 *202:A *202:B 0.000230604
11 *25:8 *202:B 5.14208e-05
12 *25:8 *29:10 0.000401899
*RES
1 *201:X *29:10 34.2686 
2 *29:10 *203:B 23 
3 *29:10 *202:B 28.3029 
*END

*D_NET *30 0.00235668
*CONN
*I *216:A1 I *D sky130_fd_sc_hd__o21ai_1
*I *238:A I *D sky130_fd_sc_hd__or3_1
*I *202:Y O *D sky130_fd_sc_hd__nor2_1
*CAP
1 *216:A1 0.000263524
2 *238:A 0
3 *202:Y 0.000681376
4 *30:16 0.000315301
5 *30:10 0.000733153
6 *216:A1 *216:B1 0.000194241
7 *216:A1 *43:12 2.13733e-05
8 *30:10 *31:8 0
9 *30:10 *32:12 0
10 *30:10 *66:8 0
11 *30:10 *71:12 4.334e-05
12 *30:10 *71:25 0
13 *30:16 *216:B1 2.18506e-05
14 *202:B *30:10 5.67058e-05
15 *22:61 *30:10 2.58197e-05
*RES
1 *202:Y *30:10 49.1029 
2 *30:10 *30:16 16.1186 
3 *30:16 *238:A 23 
4 *30:16 *216:A1 28.6757 
*END

*D_NET *31 0.0017062
*CONN
*I *204:D I *D sky130_fd_sc_hd__nor4_1
*I *205:B1 I *D sky130_fd_sc_hd__o31a_1
*I *203:Y O *D sky130_fd_sc_hd__xnor2_1
*CAP
1 *204:D 0.000222924
2 *205:B1 0
3 *203:Y 0.000311219
4 *31:12 0.00025336
5 *31:8 0.000341655
6 *204:D *206:A 5.67058e-05
7 *204:D *33:12 0.000211883
8 *204:A *204:D 4.52959e-05
9 *22:61 *204:D 0.0001096
10 *22:61 *31:8 2.76611e-06
11 *22:61 *31:12 5.50106e-05
12 *23:10 *204:D 1.72202e-05
13 *23:10 *31:12 7.85565e-05
14 *30:10 *31:8 0
*RES
1 *203:Y *31:8 43.075 
2 *31:8 *31:12 16.0979 
3 *31:12 *205:B1 23 
4 *31:12 *204:D 28.4064 
*END

*D_NET *32 0.00120447
*CONN
*I *206:A I *D sky130_fd_sc_hd__nor2_1
*I *248:A I *D sky130_fd_sc_hd__clkbuf_1
*I *204:Y O *D sky130_fd_sc_hd__nor4_1
*CAP
1 *206:A 0.000194717
2 *248:A 0
3 *204:Y 0
4 *32:12 0.000281337
5 *32:4 0.000476054
6 *206:A *33:12 2.00026e-05
7 *32:12 *66:8 6.79006e-05
8 *32:12 *71:6 2.30292e-05
9 *32:12 *71:25 8.47188e-05
10 *204:D *206:A 5.67058e-05
11 *30:10 *32:12 0
*RES
1 *204:Y *32:4 23 
2 *32:4 *32:12 35.8621 
3 *32:12 *248:A 23 
4 *32:4 *206:A 25.9 
*END

*D_NET *33 0.00053954
*CONN
*I *206:B I *D sky130_fd_sc_hd__nor2_1
*I *205:X O *D sky130_fd_sc_hd__o31a_1
*CAP
1 *206:B 0
2 *205:X 0.000104269
3 *33:12 0.000104269
4 *204:A *33:12 5.67058e-05
5 *204:B *33:12 2.4754e-05
6 *204:C *33:12 1.76557e-05
7 *204:D *33:12 0.000211883
8 *206:A *33:12 2.00026e-05
*RES
1 *205:X *33:12 27.1429 
2 *33:12 *206:B 23 
*END

*D_NET *34 0.00263964
*CONN
*I *215:A I *D sky130_fd_sc_hd__xnor2_1
*I *230:C I *D sky130_fd_sc_hd__and3_1
*I *207:Y O *D sky130_fd_sc_hd__nand2_1
*CAP
1 *215:A 0
2 *230:C 0
3 *207:Y 0
4 *34:29 0.000750459
5 *34:12 0.000202778
6 *34:4 0.000953236
7 *34:12 *207:A 8.50366e-05
8 *34:12 *224:A1 5.3304e-05
9 *34:12 *224:A2 8.29264e-05
10 *34:12 *230:A 1.59071e-05
11 *34:12 *74:53 6.57815e-06
12 *34:12 *77:92 6.27428e-05
13 *34:29 *213:A 5.41385e-05
14 *34:29 *215:B 0.00014698
15 *34:29 *224:B1 9.67842e-05
16 *34:29 *40:8 5.31444e-05
17 *34:29 *41:10 1.83408e-05
18 *34:29 *50:12 1.5769e-05
19 *34:29 *73:47 3.37984e-05
20 *34:29 *73:56 7.71797e-06
*RES
1 *207:Y *34:4 23 
2 *34:4 *34:12 33.335 
3 *34:12 *230:C 23 
4 *34:4 *34:29 41.8693 
5 *34:29 *215:A 23 
*END

*D_NET *35 0.000883895
*CONN
*I *220:C I *D sky130_fd_sc_hd__and3_1
*I *221:B1 I *D sky130_fd_sc_hd__a21oi_1
*I *208:X O *D sky130_fd_sc_hd__and4_1
*CAP
1 *220:C 5.41776e-05
2 *221:B1 0
3 *208:X 0.00016152
4 *35:12 5.41776e-05
5 *35:10 0.00016152
6 *220:C *220:A 0.000167504
7 *35:10 *208:B 2.93747e-05
8 *35:10 *48:10 2.96154e-05
9 *35:10 *76:40 0.000160191
10 *35:10 *77:62 0
11 *22:17 *220:C 6.58156e-05
*RES
1 *208:X *35:10 40.8793 
2 *35:10 *35:12 15 
3 *35:12 *221:B1 23 
4 *35:12 *220:C 24.9057 
*END

*D_NET *36 0.000824813
*CONN
*I *210:A0 I *D sky130_fd_sc_hd__mux2_1
*I *209:Y O *D sky130_fd_sc_hd__nand2_1
*CAP
1 *210:A0 6.48314e-05
2 *209:Y 0.000127088
3 *36:8 0.00019192
4 *36:8 *210:A1 6.16439e-05
5 *36:8 *78:59 0.000196549
6 *210:S *36:8 8.62783e-05
7 *22:36 *210:A0 9.65021e-05
*RES
1 *209:Y *36:8 40.61 
2 *36:8 *210:A0 39.0979 
*END

*D_NET *37 0.00163059
*CONN
*I *213:A I *D sky130_fd_sc_hd__nor2_1
*I *214:A I *D sky130_fd_sc_hd__xor2_1
*I *210:X O *D sky130_fd_sc_hd__mux2_1
*CAP
1 *213:A 5.06033e-05
2 *214:A 0
3 *210:X 0.000547238
4 *37:12 5.06033e-05
5 *37:10 0.000547238
6 *213:A *214:B 0.00010018
7 *37:10 *196:B1 0.000181805
8 *37:10 *211:B 7.40718e-05
9 *37:10 *74:53 0
10 *22:36 *37:10 2.47128e-05
11 *34:29 *213:A 5.41385e-05
*RES
1 *210:X *37:10 47.0314 
2 *37:10 *37:12 15 
3 *37:12 *214:A 23 
4 *37:12 *213:A 24.5743 
*END

*D_NET *38 0.00124773
*CONN
*I *212:A0 I *D sky130_fd_sc_hd__mux2_1
*I *211:Y O *D sky130_fd_sc_hd__nand2_1
*CAP
1 *212:A0 9.46908e-05
2 *211:Y 0.000332822
3 *38:14 0.000427513
4 *212:A0 *212:A1 0.000106214
5 *38:14 *195:A 1.41077e-05
6 *38:14 *39:12 0.000272383
*RES
1 *211:Y *38:14 43.22 
2 *38:14 *212:A0 39.5743 
*END

*D_NET *39 0.00171458
*CONN
*I *213:B I *D sky130_fd_sc_hd__nor2_1
*I *214:B I *D sky130_fd_sc_hd__xor2_1
*I *212:X O *D sky130_fd_sc_hd__mux2_1
*CAP
1 *213:B 0
2 *214:B 0.000120957
3 *212:X 0.000427119
4 *39:14 0.000120957
5 *39:12 0.000427119
6 *39:12 *195:A 6.55748e-05
7 *39:12 *212:A1 0.000145962
8 *213:A *214:B 0.00010018
9 *22:36 *39:12 3.43312e-05
10 *38:14 *39:12 0.000272383
*RES
1 *212:X *39:12 47.4043 
2 *39:12 *39:14 15 
3 *39:14 *214:B 25.5479 
4 *39:14 *213:B 23 
*END

*D_NET *40 0.000589226
*CONN
*I *224:B1 I *D sky130_fd_sc_hd__a31o_1
*I *213:Y O *D sky130_fd_sc_hd__nor2_1
*CAP
1 *224:B1 4.27536e-05
2 *213:Y 0.000105918
3 *40:8 0.000148672
4 *224:B1 *215:B 0.000141954
5 *34:29 *224:B1 9.67842e-05
6 *34:29 *40:8 5.31444e-05
*RES
1 *213:Y *40:8 39.9057 
2 *40:8 *224:B1 39.5743 
*END

*D_NET *41 0.00170185
*CONN
*I *215:B I *D sky130_fd_sc_hd__xnor2_1
*I *224:A3 I *D sky130_fd_sc_hd__a31o_1
*I *214:X O *D sky130_fd_sc_hd__xor2_1
*CAP
1 *215:B 0.000221361
2 *224:A3 0
3 *214:X 0.000178852
4 *41:14 0.00027261
5 *41:10 0.0002301
6 *215:B *224:A1 2.46906e-05
7 *215:B *224:A2 4.44329e-05
8 *41:10 *74:53 0.000245818
9 *41:14 *224:A2 0.000144501
10 *41:14 *51:10 3.22051e-05
11 *224:B1 *215:B 0.000141954
12 *34:29 *215:B 0.00014698
13 *34:29 *41:10 1.83408e-05
*RES
1 *214:X *41:10 41.9357 
2 *41:10 *41:14 16.5743 
3 *41:14 *224:A3 23 
4 *41:14 *215:B 28.8621 
*END

*D_NET *42 0.00144539
*CONN
*I *216:B1 I *D sky130_fd_sc_hd__o21ai_1
*I *238:C I *D sky130_fd_sc_hd__or3_1
*I *215:Y O *D sky130_fd_sc_hd__xnor2_1
*CAP
1 *216:B1 0.000115745
2 *238:C 0
3 *215:Y 0.000458997
4 *42:12 0.000115745
5 *42:10 0.000458997
6 *216:B1 *43:12 5.66371e-05
7 *216:B1 *62:10 2.31756e-05
8 *42:10 *62:10 0
9 *216:A1 *216:B1 0.000194241
10 *30:16 *216:B1 2.18506e-05
*RES
1 *215:Y *42:10 44.3386 
2 *42:10 *42:12 15 
3 *42:12 *238:C 23 
4 *42:12 *216:B1 27.8471 
*END

*D_NET *43 0.00178102
*CONN
*I *228:A I *D sky130_fd_sc_hd__xnor2_1
*I *227:A_N I *D sky130_fd_sc_hd__and2b_1
*I *239:A I *D sky130_fd_sc_hd__and2_1
*I *216:Y O *D sky130_fd_sc_hd__o21ai_1
*CAP
1 *228:A 0
2 *227:A_N 6.37462e-05
3 *239:A 0
4 *216:Y 0.000158097
5 *43:38 0.000150868
6 *43:25 0.000562728
7 *43:12 0.000506212
8 *43:12 *62:10 0.000238898
9 *43:38 *53:14 0
10 *216:A1 *43:12 2.13733e-05
11 *216:B1 *43:12 5.66371e-05
12 *13:12 *43:12 2.24608e-05
*RES
1 *216:Y *43:12 41.9771 
2 *43:12 *239:A 38 
3 *43:12 *43:25 21.4421 
4 *43:25 *227:A_N 24.0979 
5 *43:25 *43:38 32.9621 
6 *43:38 *228:A 23 
*END

*D_NET *44 0.000601703
*CONN
*I *219:B1 I *D sky130_fd_sc_hd__a211o_1
*I *217:Y O *D sky130_fd_sc_hd__a21oi_1
*CAP
1 *219:B1 0.000134487
2 *217:Y 0.000134487
3 *219:B1 *217:A1 8.48502e-06
4 *219:B1 *217:A2 5.3304e-05
5 *219:B1 *217:B1 2.93747e-05
6 *219:B1 *219:A1 2.02517e-05
7 *219:B1 *45:10 4.37033e-05
8 *219:B1 *78:25 0.00017761
*RES
1 *217:Y *219:B1 49.5214 
*END

*D_NET *45 0.00166448
*CONN
*I *219:C1 I *D sky130_fd_sc_hd__a211o_1
*I *237:A2 I *D sky130_fd_sc_hd__a211o_1
*I *218:X O *D sky130_fd_sc_hd__and3_1
*CAP
1 *219:C1 0
2 *237:A2 0
3 *218:X 0.00015296
4 *45:18 0.000285081
5 *45:10 0.000438041
6 *45:10 *217:A1 1.24376e-05
7 *45:10 *77:81 0.000323085
8 *45:10 *78:25 2.9938e-05
9 *45:10 *78:34 4.34876e-05
10 *45:18 *255:A 9.84851e-05
11 *45:18 *57:8 0
12 *45:18 *78:42 0
13 *219:B1 *45:10 4.37033e-05
14 *4:11 *45:18 0.000237265
15 *19:10 *45:18 0
*RES
1 *218:X *45:10 27.4743 
2 *45:10 *45:18 35.365 
3 *45:18 *237:A2 23 
4 *45:10 *219:C1 23 
*END

*D_NET *46 0.00136572
*CONN
*I *223:A I *D sky130_fd_sc_hd__xor2_1
*I *231:A1 I *D sky130_fd_sc_hd__o21bai_1
*I *219:X O *D sky130_fd_sc_hd__a211o_1
*CAP
1 *223:A 0.000158792
2 *231:A1 0.000140626
3 *219:X 7.96648e-05
4 *46:8 0.000379084
5 *223:A *73:28 0.000139357
6 *223:A *73:47 0.000260847
7 *231:A1 *48:10 1.14452e-05
8 *231:A1 *57:8 8.51329e-05
9 *231:A1 *73:19 0
10 *46:8 *57:8 6.68793e-05
11 *46:8 *77:62 0
12 *46:8 *77:81 1.01436e-05
13 *19:10 *46:8 3.3746e-05
*RES
1 *219:X *46:8 39.9057 
2 *46:8 *231:A1 41.3143 
3 *46:8 *223:A 42.4329 
*END

*D_NET *47 0.00105839
*CONN
*I *222:A I *D sky130_fd_sc_hd__or2_1
*I *231:B1_N I *D sky130_fd_sc_hd__o21bai_1
*I *220:X O *D sky130_fd_sc_hd__and3_1
*CAP
1 *222:A 7.91938e-05
2 *231:B1_N 0
3 *220:X 0.000331096
4 *47:12 7.91938e-05
5 *47:10 0.000331096
6 *222:A *222:B 5.50106e-05
7 *47:10 *48:10 5.50049e-05
8 *47:10 *76:40 8.72173e-05
9 *22:17 *47:10 4.05745e-05
*RES
1 *220:X *47:10 43.2407 
2 *47:10 *47:12 15 
3 *47:12 *231:B1_N 23 
4 *47:12 *222:A 24.5743 
*END

*D_NET *48 0.00108985
*CONN
*I *222:B I *D sky130_fd_sc_hd__or2_1
*I *231:A2 I *D sky130_fd_sc_hd__o21bai_1
*I *221:Y O *D sky130_fd_sc_hd__a21oi_1
*CAP
1 *222:B 0.000137794
2 *231:A2 0
3 *221:Y 0.000240777
4 *48:14 0.000180215
5 *48:10 0.000283198
6 *48:10 *73:19 0
7 *48:10 *77:62 0
8 *222:A *222:B 5.50106e-05
9 *231:A1 *48:10 1.14452e-05
10 *22:17 *48:10 9.67842e-05
11 *35:10 *48:10 2.96154e-05
12 *47:10 *48:10 5.50049e-05
*RES
1 *221:Y *48:10 42.4121 
2 *48:10 *48:14 15.6214 
3 *48:14 *231:A2 23 
4 *48:14 *222:B 25.6929 
*END

*D_NET *49 0.000207335
*CONN
*I *223:B I *D sky130_fd_sc_hd__xor2_1
*I *222:X O *D sky130_fd_sc_hd__or2_1
*CAP
1 *223:B 0
2 *222:X 0.000103667
3 *49:8 0.000103667
4 *49:8 *57:8 0
5 *49:8 *78:53 0
*RES
1 *222:X *49:8 39.9057 
2 *49:8 *223:B 38 
*END

*D_NET *50 0.00251343
*CONN
*I *225:A I *D sky130_fd_sc_hd__and2_1
*I *226:A I *D sky130_fd_sc_hd__xor2_1
*I *223:X O *D sky130_fd_sc_hd__xor2_1
*CAP
1 *225:A 0
2 *226:A 0.000173684
3 *223:X 0.000522071
4 *50:16 0.000236719
5 *50:12 0.000585107
6 *226:A *225:B 2.1819e-05
7 *226:A *226:B 0.00011107
8 *226:A *54:6 1.24418e-05
9 *50:12 *196:B1 1.00084e-05
10 *50:12 *224:A2 0.000186054
11 *50:12 *51:10 0
12 *50:12 *73:47 0.000276115
13 *50:12 *73:56 3.1094e-06
14 *50:12 *74:53 0.000243587
15 *50:16 *225:B 0.000101764
16 *50:16 *54:6 1.41077e-05
17 *34:29 *50:12 1.5769e-05
*RES
1 *223:X *50:12 49.31 
2 *50:12 *50:16 16.5743 
3 *50:16 *226:A 26.8736 
4 *50:16 *225:A 23 
*END

*D_NET *51 0.000974004
*CONN
*I *226:B I *D sky130_fd_sc_hd__xor2_1
*I *225:B I *D sky130_fd_sc_hd__and2_1
*I *224:X O *D sky130_fd_sc_hd__a31o_1
*CAP
1 *226:B 5.15818e-05
2 *225:B 3.59189e-05
3 *224:X 0.000187332
4 *51:12 8.75006e-05
5 *51:10 0.000187332
6 *225:B *54:6 7.87561e-05
7 *226:B *54:6 7.87243e-05
8 *226:A *225:B 2.1819e-05
9 *226:A *226:B 0.00011107
10 *41:14 *51:10 3.22051e-05
11 *50:12 *51:10 0
12 *50:16 *225:B 0.000101764
*RES
1 *224:X *51:10 40.8793 
2 *51:10 *51:12 15 
3 *51:12 *225:B 24.5743 
4 *51:12 *226:B 25.0714 
*END

*D_NET *52 0.000754224
*CONN
*I *235:A1 I *D sky130_fd_sc_hd__o21ba_1
*I *229:A I *D sky130_fd_sc_hd__nor2_1
*I *225:X O *D sky130_fd_sc_hd__and2_1
*CAP
1 *235:A1 0
2 *229:A 0.00013485
3 *225:X 0.000179405
4 *52:12 0.00013485
5 *52:10 0.000179405
6 *229:A *235:A2 5.15376e-05
7 *52:10 *232:A 0
8 *52:10 *54:16 7.41754e-05
9 *52:10 *61:8 0
*RES
1 *225:X *52:10 40.5271 
2 *52:10 *52:12 15 
3 *52:12 *229:A 25.5686 
4 *52:12 *235:A1 23 
*END

*D_NET *53 0.00150252
*CONN
*I *227:B I *D sky130_fd_sc_hd__and2b_1
*I *228:B I *D sky130_fd_sc_hd__xnor2_1
*I *226:X O *D sky130_fd_sc_hd__xor2_1
*CAP
1 *227:B 0
2 *228:B 0
3 *226:X 0.00034843
4 *53:14 0.000314398
5 *53:6 0.000662827
6 *53:6 *54:6 0.000176867
7 *43:38 *53:14 0
*RES
1 *226:X *53:6 30.2914 
2 *53:6 *53:14 35.7171 
3 *53:14 *228:B 23 
4 *53:6 *227:B 23 
*END

*D_NET *54 0.00260166
*CONN
*I *235:A2 I *D sky130_fd_sc_hd__o21ba_1
*I *229:B I *D sky130_fd_sc_hd__nor2_1
*I *227:X O *D sky130_fd_sc_hd__and2b_1
*CAP
1 *235:A2 0.000105315
2 *229:B 0
3 *227:X 0.00079607
4 *54:16 0.000254592
5 *54:6 0.000945347
6 *235:A2 *235:B1_N 1.37232e-05
7 *225:B *54:6 7.87561e-05
8 *226:A *54:6 1.24418e-05
9 *226:B *54:6 7.87243e-05
10 *229:A *235:A2 5.15376e-05
11 *50:16 *54:6 1.41077e-05
12 *52:10 *54:16 7.41754e-05
13 *53:6 *54:6 0.000176867
*RES
1 *227:X *54:6 35.0557 
2 *54:6 *54:16 32.6721 
3 *54:16 *229:B 23 
4 *54:16 *235:A2 25.5686 
*END

*D_NET *55 0.000798344
*CONN
*I *236:A I *D sky130_fd_sc_hd__xor2_1
*I *229:Y O *D sky130_fd_sc_hd__nor2_1
*CAP
1 *236:A 0.000233601
2 *229:Y 0.000126214
3 *55:8 0.000359815
4 *236:A *254:A 7.87147e-05
5 *55:8 *60:12 0
*RES
1 *229:Y *55:8 40.2579 
2 *55:8 *236:A 42.3293 
*END

*D_NET *56 0.00222255
*CONN
*I *232:A I *D sky130_fd_sc_hd__and2_1
*I *233:A I *D sky130_fd_sc_hd__nor2_1
*I *230:X O *D sky130_fd_sc_hd__and3_1
*CAP
1 *232:A 4.64643e-05
2 *233:A 0.000421623
3 *230:X 0.000345927
4 *56:10 0.000814014
5 *232:A *61:8 2.76611e-06
6 *233:A *232:B 8.99287e-05
7 *233:A *234:B 9.75779e-05
8 *233:A *58:6 0.00014196
9 *233:A *60:6 3.17516e-05
10 *56:10 *57:8 0
11 *56:10 *58:16 0
12 *56:10 *61:8 4.3407e-05
13 *56:10 *74:40 0.000187129
14 *52:10 *232:A 0
*RES
1 *230:X *56:10 44.0693 
2 *56:10 *233:A 44.7114 
3 *56:10 *232:A 38.8493 
*END

*D_NET *57 0.00213362
*CONN
*I *232:B I *D sky130_fd_sc_hd__and2_1
*I *233:B I *D sky130_fd_sc_hd__nor2_1
*I *231:Y O *D sky130_fd_sc_hd__o21bai_1
*CAP
1 *232:B 0.000110952
2 *233:B 0
3 *231:Y 0.000526533
4 *57:10 0.000110952
5 *57:8 0.000526533
6 *232:B *234:B 5.50106e-05
7 *232:B *58:6 0.00014196
8 *232:B *60:6 0.000143655
9 *57:8 *58:16 3.98859e-05
10 *57:8 *73:36 0.000114092
11 *57:8 *77:81 1.34354e-05
12 *57:8 *78:42 0.000108672
13 *231:A1 *57:8 8.51329e-05
14 *233:A *232:B 8.99287e-05
15 *45:18 *57:8 0
16 *46:8 *57:8 6.68793e-05
17 *49:8 *57:8 0
18 *56:10 *57:8 0
*RES
1 *231:Y *57:8 48.3571 
2 *57:8 *57:10 15 
3 *57:10 *233:B 23 
4 *57:10 *232:B 26.9564 
*END

*D_NET *58 0.000998019
*CONN
*I *234:A I *D sky130_fd_sc_hd__or2_1
*I *237:B1 I *D sky130_fd_sc_hd__a211o_1
*I *232:X O *D sky130_fd_sc_hd__and2_1
*CAP
1 *234:A 0
2 *237:B1 0
3 *232:X 2.53239e-05
4 *58:16 0.000240804
5 *58:6 0.000266127
6 *58:16 *237:C1 0.00014196
7 *232:B *58:6 0.00014196
8 *233:A *58:6 0.00014196
9 *56:10 *58:16 0
10 *57:8 *58:16 3.98859e-05
*RES
1 *232:X *58:6 24.5743 
2 *58:6 *58:16 34.4536 
3 *58:16 *237:B1 23 
4 *58:6 *234:A 23 
*END

*D_NET *59 0.00022021
*CONN
*I *234:B I *D sky130_fd_sc_hd__or2_1
*I *233:Y O *D sky130_fd_sc_hd__nor2_1
*CAP
1 *234:B 3.38107e-05
2 *233:Y 3.38107e-05
3 *232:B *234:B 5.50106e-05
4 *233:A *234:B 9.75779e-05
*RES
1 *233:Y *234:B 47.0979 
*END

*D_NET *60 0.00101326
*CONN
*I *235:B1_N I *D sky130_fd_sc_hd__o21ba_1
*I *236:B I *D sky130_fd_sc_hd__xor2_1
*I *234:X O *D sky130_fd_sc_hd__or2_1
*CAP
1 *235:B1_N 5.15718e-05
2 *236:B 0
3 *234:X 0.000212506
4 *60:12 0.000147986
5 *60:6 0.000412064
6 *232:B *60:6 0.000143655
7 *233:A *60:6 3.17516e-05
8 *235:A2 *235:B1_N 1.37232e-05
9 *55:8 *60:12 0
*RES
1 *234:X *60:6 27.4329 
2 *60:6 *60:12 32.61 
3 *60:12 *236:B 23 
4 *60:6 *235:B1_N 24.1186 
*END

*D_NET *61 0.00105059
*CONN
*I *237:C1 I *D sky130_fd_sc_hd__a211o_1
*I *235:X O *D sky130_fd_sc_hd__o21ba_1
*CAP
1 *237:C1 0.000331853
2 *235:X 9.93755e-05
3 *61:8 0.000431228
4 *232:A *61:8 2.76611e-06
5 *52:10 *61:8 0
6 *56:10 *61:8 4.3407e-05
7 *58:16 *237:C1 0.00014196
*RES
1 *235:X *61:8 39.9057 
2 *61:8 *237:C1 44.3386 
*END

*D_NET *62 0.000619227
*CONN
*I *239:B I *D sky130_fd_sc_hd__and2_1
*I *238:X O *D sky130_fd_sc_hd__or3_1
*CAP
1 *239:B 0
2 *238:X 0.000178577
3 *62:10 0.000178577
4 *216:B1 *62:10 2.31756e-05
5 *42:10 *62:10 0
6 *43:12 *62:10 0.000238898
*RES
1 *238:X *62:10 41.48 
2 *62:10 *239:B 38 
*END

*D_NET *63 0.00566245
*CONN
*I *198:A I *D sky130_fd_sc_hd__and3_1
*I *189:B I *D sky130_fd_sc_hd__and2_1
*I *200:B1 I *D sky130_fd_sc_hd__a21oi_1
*I *208:A I *D sky130_fd_sc_hd__and4_1
*I *190:A1 I *D sky130_fd_sc_hd__a22oi_1
*I *191:A1 I *D sky130_fd_sc_hd__o211a_1
*I *240:X O *D sky130_fd_sc_hd__buf_1
*CAP
1 *198:A 0
2 *189:B 0
3 *200:B1 1.66999e-05