*SPEF "ieee 1481-1999"
*DESIGN "mult4_SARSA_WInd_e9_SARSA_RUIDO_e9_SARSA_RUIDO_e9_SARSA_RUIDO_e9"
*DATE "18:43:30 Tuesday September 16, 2025"
*VENDOR "The OpenROAD Project"
*PROGRAM "OpenROAD"
*VERSION "edf00dff99f6c40d67a30c0e22a8191c5d2ed9d6"
*DESIGN_FLOW "NAME_SCOPE LOCAL" "PIN_CAP NONE"
*DIVIDER /
*DELIMITER :
*BUS_DELIMITER []
*T_UNIT 1 NS
*C_UNIT 1 PF
*R_UNIT 1 OHM
*L_UNIT 1 HENRY

*NAME_MAP
*1 A[0]
*2 A[1]
*3 A[2]
*4 A[3]
*5 B[0]
*6 B[1]
*7 B[2]
*8 B[3]
*9 P[0]
*10 P[1]
*11 P[2]
*12 P[3]
*13 P[4]
*14 P[5]
*15 P[6]
*16 P[7]
*19 _00_
*20 _01_
*21 _02_
*22 _03_
*23 _04_
*24 _05_
*25 _06_
*26 _07_
*27 _08_
*28 _09_
*29 _10_
*30 _11_
*31 _12_
*32 _13_
*33 _14_
*34 _15_
*35 _16_
*36 _17_
*37 _18_
*38 _19_
*39 _20_
*40 _21_
*41 _22_
*42 _23_
*43 _24_
*44 _25_
*45 _26_
*46 _27_
*47 _28_
*48 _29_
*49 _30_
*50 _31_
*51 _32_
*52 _33_
*53 _34_
*54 _35_
*55 _36_
*56 _37_
*57 _38_
*58 _39_
*59 _40_
*60 _41_
*61 _42_
*62 _43_
*63 _44_
*64 net1
*65 net10
*66 net11
*67 net12
*68 net13
*69 net14
*70 net15
*71 net16
*72 net2
*73 net3
*74 net4
*75 net5
*76 net6
*77 net7
*78 net8
*79 net9
*80 FILLER_0_27
*81 FILLER_0_3
*82 FILLER_0_43
*83 FILLER_0_55
*84 FILLER_0_60
*85 FILLER_0_70
*86 FILLER_0_78
*87 FILLER_1_15
*88 FILLER_1_24
*89 FILLER_1_3
*90 FILLER_1_39
*91 FILLER_1_54
*92 FILLER_1_57
*93 FILLER_1_66
*94 FILLER_1_76
*95 FILLER_2_12
*96 FILLER_2_16
*97 FILLER_2_22
*98 FILLER_2_29
*99 FILLER_2_37
*100 FILLER_2_47
*101 FILLER_2_65
*102 FILLER_2_77
*103 FILLER_3_21
*104 FILLER_3_3
*105 FILLER_3_30
*106 FILLER_3_48
*107 FILLER_3_65
*108 FILLER_3_8
*109 FILLER_4_12
*110 FILLER_4_25
*111 FILLER_4_29
*112 FILLER_4_3
*113 FILLER_4_35
*114 FILLER_4_44
*115 FILLER_4_56
*116 FILLER_4_60
*117 FILLER_4_65
*118 FILLER_4_73
*119 FILLER_4_79
*120 FILLER_5_17
*121 FILLER_5_29
*122 FILLER_5_37
*123 FILLER_5_49
*124 FILLER_5_57
*125 FILLER_5_67
*126 FILLER_5_75
*127 FILLER_6_10
*128 FILLER_6_29
*129 FILLER_6_37
*130 FILLER_6_6
*131 FILLER_6_65
*132 FILLER_6_69
*133 FILLER_7_15
*134 FILLER_7_3
*135 FILLER_7_40
*136 FILLER_7_46
*137 FILLER_7_53
*138 FILLER_7_57
*139 FILLER_7_67
*140 FILLER_7_79
*141 FILLER_8_18
*142 FILLER_8_26
*143 FILLER_8_29
*144 FILLER_8_3
*145 FILLER_8_41
*146 FILLER_8_53
*147 FILLER_8_59
*148 FILLER_8_67
*149 FILLER_8_79
*150 FILLER_9_21
*151 FILLER_9_27
*152 FILLER_9_29
*153 FILLER_9_41
*154 FILLER_9_53
*155 FILLER_9_57
*156 FILLER_9_69
*157 FILLER_9_7
*158 PHY_EDGE_ROW_0_Left_10
*159 PHY_EDGE_ROW_0_Right_0
*160 PHY_EDGE_ROW_1_Left_11
*161 PHY_EDGE_ROW_1_Right_1
*162 PHY_EDGE_ROW_2_Left_12
*163 PHY_EDGE_ROW_2_Right_2
*164 PHY_EDGE_ROW_3_Left_13
*165 PHY_EDGE_ROW_3_Right_3
*166 PHY_EDGE_ROW_4_Left_14
*167 PHY_EDGE_ROW_4_Right_4
*168 PHY_EDGE_ROW_5_Left_15
*169 PHY_EDGE_ROW_5_Right_5
*170 PHY_EDGE_ROW_6_Left_16
*171 PHY_EDGE_ROW_6_Right_6
*172 PHY_EDGE_ROW_7_Left_17
*173 PHY_EDGE_ROW_7_Right_7
*174 PHY_EDGE_ROW_8_Left_18
*175 PHY_EDGE_ROW_8_Right_8
*176 PHY_EDGE_ROW_9_Left_19
*177 PHY_EDGE_ROW_9_Right_9
*178 TAP_TAPCELL_ROW_0_20
*179 TAP_TAPCELL_ROW_0_21
*180 TAP_TAPCELL_ROW_1_22
*181 TAP_TAPCELL_ROW_2_23
*182 TAP_TAPCELL_ROW_3_24
*183 TAP_TAPCELL_ROW_4_25
*184 TAP_TAPCELL_ROW_5_26
*185 TAP_TAPCELL_ROW_6_27
*186 TAP_TAPCELL_ROW_7_28
*187 TAP_TAPCELL_ROW_8_29
*188 TAP_TAPCELL_ROW_9_30
*189 TAP_TAPCELL_ROW_9_31
*190 _45_
*191 _46_
*192 _47_
*193 _48_
*194 _49_
*195 _50_
*196 _51_
*197 _52_
*198 _53_
*199 _54_
*200 _55_
*201 _56_
*202 _57_
*203 _58_
*204 _59_
*205 _60_
*206 _61_
*207 _62_
*208 _63_
*209 _64_
*210 _65_
*211 _66_
*212 _67_
*213 _68_
*214 _69_
*215 _70_
*216 _71_
*217 _72_
*218 _73_
*219 _74_
*220 _75_
*221 _76_
*222 _77_
*223 _78_
*224 _79_
*225 _80_
*226 _81_
*227 _82_
*228 _83_
*229 _84_
*230 _85_
*231 _86_
*232 _87_
*233 _88_
*234 _89_
*235 _90_
*236 _91_
*237 _92_
*238 _93_
*239 _94_
*240 _95_
*241 _96_
*242 _97_
*243 input1
*244 input2
*245 input3
*246 input4
*247 input5
*248 input6
*249 input7
*250 input8
*251 output10
*252 output11
*253 output12
*254 output13
*255 output14
*256 output15
*257 output16
*258 output9

*PORTS
A[0] I
A[1] I
A[2] I
A[3] I
B[0] I
B[1] I
B[2] I
B[3] I
P[0] O
P[1] O
P[2] O
P[3] O
P[4] O
P[5] O
P[6] O
P[7] O

*D_NET *1 0.000994806
*CONN
*P A[0] I
*I *243:A I *D sky130_fd_sc_hd__dlymetal6s2s_1
*CAP
1 A[0] 0.000442392
2 *243:A 0.000442392
3 *243:A *2:11 5.50106e-05
4 *243:A *72:8 5.50106e-05
*RES
1 A[0] *243:A 47.3214 
*END

*D_NET *2 0.00153142
*CONN
*P A[1] I
*I *244:A I *D sky130_fd_sc_hd__buf_1
*CAP
1 A[1] 0.000632481
2 *244:A 0
3 *2:11 0.000632481
4 *2:11 *248:A 0
5 *2:11 *64:8 0.000141954
6 *2:11 *64:12 2.76611e-06
7 *2:11 *72:8 2.4754e-05
8 *2:11 *72:21 4.19743e-05
9 *243:A *2:11 5.50106e-05
*RES
1 A[1] *2:11 28.2779 
2 *2:11 *244:A 23 
*END

*D_NET *3 0.000694448
*CONN
*P A[2] I
*I *245:A I *D sky130_fd_sc_hd__dlymetal6s2s_1
*CAP
1 A[2] 0.000322645
2 *245:A 0
3 *3:17 0.000322645
4 *3:17 *246:A 2.79122e-05
5 *3:17 *7:13 2.12457e-05
6 *3:17 *74:8 0
*RES
1 A[2] *3:17 27.5105 
2 *3:17 *245:A 23 
*END

*D_NET *4 0.000577349
*CONN
*P A[3] I
*I *246:A I *D sky130_fd_sc_hd__buf_1
*CAP
1 A[3] 0.000269785
2 *246:A 0.000269785
3 *246:A P[7] 0
4 *246:A *7:13 0
5 *246:A *59:10 0
6 *246:A *74:8 9.86551e-06
7 *3:17 *246:A 2.79122e-05
*RES
1 A[3] *246:A 47.7832 
*END

*D_NET *5 0.00243623
*CONN
*P B[0] I
*I *247:A I *D sky130_fd_sc_hd__buf_1
*CAP
1 B[0] 0.000854773
2 *247:A 0
3 *5:11 0.000854773
4 *5:11 P[0] 5.50106e-05
5 *5:11 P[1] 0
6 *5:11 *190:A 0
7 *5:11 *190:B 0.000190561
8 *5:11 *258:A 0.00010018
9 *5:11 *10:8 0.000186598
10 *5:11 *19:10 9.84851e-05
11 *5:11 *72:36 2.93845e-05
12 *5:11 *75:6 3.98818e-05
13 *5:11 *75:12 2.65879e-05
*RES
1 B[0] *5:11 34.4714 
2 *5:11 *247:A 23 
*END

*D_NET *6 0.00160029
*CONN
*P B[1] I
*I *248:A I *D sky130_fd_sc_hd__dlymetal6s2s_1
*CAP
1 B[1] 0.000511457
2 *248:A 0.000511457
3 *248:A P[1] 0
4 *248:A *192:A 0.000143655
5 *248:A *64:47 1.24376e-05
6 *248:A *64:64 9.41704e-05
7 *248:A *72:36 0.000265466
8 *248:A *75:49 6.16439e-05
9 *2:11 *248:A 0
*RES
1 B[1] *248:A 49.7036 
*END

*D_NET *7 0.00146503
*CONN
*P B[2] I
*I *249:A I *D sky130_fd_sc_hd__buf_1
*CAP
1 B[2] 0.000449936
2 *249:A 0
3 *7:13 0.000449936
4 *7:13 *224:C1 0.000226306
5 *7:13 *235:A 0.000184527
6 *7:13 *8:17 2.79122e-05
7 *7:13 *27:12 0
8 *7:13 *27:29 5.50106e-05
9 *7:13 *73:14 0
10 *7:13 *74:12 1.57571e-05
11 *7:13 *78:71 3.44001e-05
12 *246:A *7:13 0
13 *3:17 *7:13 2.12457e-05
*RES
1 B[2] *7:13 32.101 
2 *7:13 *249:A 23 
*END

*D_NET *8 0.000718367
*CONN
*P B[3] I
*I *250:A I *D sky130_fd_sc_hd__clkbuf_2
*CAP
1 B[3] 0.000345228
2 *250:A 0
3 *8:17 0.000345228
4 *7:13 *8:17 2.79122e-05
*RES
1 B[3] *8:17 27.6348 
2 *8:17 *250:A 23 
*END

*D_NET *9 0.000953224
*CONN
*P P[0] O
*I *258:X O *D sky130_fd_sc_hd__buf_2
*CAP
1 P[0] 0.000449107
2 *258:X 0.000449107
3 *5:11 P[0] 5.50106e-05
*RES
1 *258:X P[0] 47.3836 
*END

*D_NET *10 0.00178015
*CONN
*P P[1] O
*I *251:X O *D sky130_fd_sc_hd__buf_2
*CAP
1 P[1] 0.000374016
2 *251:X 0.000355875
3 *10:8 0.000729891
4 P[1] *75:49 0
5 *10:8 *192:A 1.24376e-05
6 *10:8 *72:36 7.34077e-05
7 *10:8 *76:6 4.79228e-05
8 *248:A P[1] 0
9 *5:11 P[1] 0
10 *5:11 *10:8 0.000186598
*RES
1 *251:X *10:8 43.3857 
2 *10:8 P[1] 7.99571 
*END

*D_NET *11 0.000522376
*CONN
*P P[2] O
*I *252:X O *D sky130_fd_sc_hd__buf_2
*CAP
1 P[2] 0.000261188
2 *252:X 0.000261188
3 P[2] *26:10 0
*RES
1 *252:X P[2] 47.1648 
*END

*D_NET *12 0.000649939
*CONN
*P P[3] O
*I *253:X O *D sky130_fd_sc_hd__buf_2
*CAP
1 P[3] 0.000243971
2 *253:X 0.000243971
3 P[3] P[4] 8.73764e-05
4 P[3] *67:8 7.46212e-05
*RES
1 *253:X P[3] 47.8691 
*END

*D_NET *13 0.000516158
*CONN
*P P[4] O
*I *254:X O *D sky130_fd_sc_hd__buf_2
*CAP
1 P[4] 0.000214391
2 *254:X 0.000214391
3 P[4] P[5] 0
4 P[4] *47:21 0
5 P[3] P[4] 8.73764e-05
*RES
1 *254:X P[4] 47.1648 
*END

*D_NET *14 0.00067994
*CONN
*P P[5] O
*I *255:X O *D sky130_fd_sc_hd__buf_2
*CAP
1 P[5] 0.00033997
2 *255:X 0.00033997
3 P[4] P[5] 0
*RES
1 *255:X P[5] 48.5734 
*END

*D_NET *15 0.000592406
*CONN
*P P[6] O
*I *256:X O *D sky130_fd_sc_hd__buf_2
*CAP
1 P[6] 0.000260463
2 *256:X 0.000260463
3 P[6] P[7] 7.1481e-05
*RES
1 *256:X P[6] 48.0909 
*END

*D_NET *16 0.00164207
*CONN
*P P[7] O
*I *257:X O *D sky130_fd_sc_hd__buf_2
*CAP
1 P[7] 0.000763624
2 *257:X 0.000763624
3 P[7] *51:12 0
4 P[7] *58:25 0
5 P[7] *71:8 4.334e-05
6 P[6] P[7] 7.1481e-05
7 *246:A P[7] 0
*RES
1 *257:X P[7] 49.8614 
*END

*D_NET *19 0.00185626
*CONN
*I *197:C I *D sky130_fd_sc_hd__and4_1
*I *198:A3 I *D sky130_fd_sc_hd__a31o_1
*I *191:A I *D sky130_fd_sc_hd__inv_2
*I *190:Y O *D sky130_fd_sc_hd__nand2_1
*CAP
1 *197:C 0
2 *198:A3 0.000107197
3 *191:A 0
4 *190:Y 0.000126805
5 *19:23 0.000468777
6 *19:10 0.000488385
7 *198:A3 *197:A 1.59071e-05
8 *198:A3 *197:B 0.000265556
9 *198:A3 *197:D 0.0002263
10 *19:23 *197:D 2.18409e-05
11 *19:23 *22:33 3.70094e-05
12 *19:23 *35:10 0
13 *5:11 *19:10 9.84851e-05
*RES
1 *190:Y *19:10 39.9471 
2 *19:10 *191:A 38 
3 *19:10 *19:23 19.64 
4 *19:23 *198:A3 26.9979 
5 *19:23 *197:C 23 
*END

*D_NET *20 0.00215695
*CONN
*I *209:C I *D sky130_fd_sc_hd__nand4_1
*I *193:A_N I *D sky130_fd_sc_hd__and2b_1
*I *212:B1 I *D sky130_fd_sc_hd__a31o_1
*I *192:X O *D sky130_fd_sc_hd__and4_1
*CAP
1 *209:C 6.93901e-05
2 *193:A_N 0
3 *212:B1 0.000104136
4 *192:X 0.000211944
5 *20:25 0.000107355
6 *20:12 0.000142101
7 *20:10 0.000211944
8 *209:C *209:D 0.000255636
9 *209:C *65:14 2.18409e-05
10 *209:C *78:42 0.000312967
11 *212:B1 *34:10 5.6062e-05
12 *212:B1 *34:19 5.79252e-05
13 *212:B1 *64:25 5.37482e-05
14 *212:B1 *78:42 9.67842e-05
15 *20:10 *34:27 1.58805e-05
16 *20:10 *38:10 0
17 *20:10 *64:12 4.6327e-05
18 *20:10 *75:49 0.00010018
19 *20:10 *76:21 0
20 *20:10 *76:30 0
21 *20:10 *76:58 0
22 *20:10 *78:42 1.40087e-05
23 *20:25 *209:D 5.50106e-05
24 *20:25 *34:19 8.43466e-05
25 *20:25 *78:42 0.000139357
*RES
1 *192:X *20:10 41.7079 
2 *20:10 *20:12 15 
3 *20:12 *212:B1 25.7032 
4 *20:12 *20:25 1.57429 
5 *20:25 *193:A_N 23 
6 *20:25 *209:C 26.48 
*END

*D_NET *21 0.0022845
*CONN
*I *220:A1 I *D sky130_fd_sc_hd__a21o_1
*I *204:A I *D sky130_fd_sc_hd__or4b_1
*I *194:X O *D sky130_fd_sc_hd__and2_1
*CAP
1 *220:A1 0
2 *204:A 0
3 *194:X 1.6337e-05
4 *21:27 0.000344318
5 *21:14 0.00023669
6 *21:6 0.000597345
7 *21:6 *195:B 5.79559e-05
8 *21:6 *22:16 0.000101686
9 *21:6 *38:22 2.46906e-05
10 *21:14 *38:18 7.69256e-06
11 *21:14 *75:12 1.12863e-05
12 *21:14 *75:29 7.67018e-05
13 *21:27 *219:A1 5.50106e-05
14 *21:27 *219:B1 1.24376e-05
15 *21:27 *22:16 4.21048e-05
16 *21:27 *22:33 0.000270682
17 *21:27 *35:10 4.08537e-05
18 *21:27 *35:21 1.58805e-05
19 *21:27 *38:22 0.000346679
20 *21:27 *38:37 2.61526e-05
21 *21:27 *46:10 0
*RES
1 *194:X *21:6 24.0979 
2 *21:6 *21:14 33.8114 
3 *21:14 *204:A 23 
4 *21:6 *21:27 39.3214 
5 *21:27 *220:A1 23 
*END

*D_NET *22 0.00476133
*CONN
*I *200:A I *D sky130_fd_sc_hd__xnor2_1
*I *205:B2 I *D sky130_fd_sc_hd__a2bb2o_1
*I *195:Y O *D sky130_fd_sc_hd__nand2_1
*CAP
1 *200:A 0
2 *205:B2 0
3 *195:Y 0
4 *22:33 0.000733734
5 *22:16 0.000708583
6 *22:4 0.00144232
7 *22:16 *195:B 1.64259e-05
8 *22:16 *204:D_N 4.0578e-05
9 *22:16 *29:10 0.000108681
10 *22:16 *37:12 9.65e-05
11 *22:16 *38:18 0.000491048
12 *22:16 *76:58 4.6318e-06
13 *22:16 *76:77 0.000108356
14 *22:33 *252:A 0
15 *22:33 *24:6 7.27182e-05
16 *22:33 *24:21 2.93747e-05
17 *22:33 *25:10 0.000356718
18 *22:33 *35:10 0
19 *22:33 *46:10 0.00010018
20 *19:23 *22:33 3.70094e-05
21 *21:6 *22:16 0.000101686
22 *21:27 *22:16 4.21048e-05
23 *21:27 *22:33 0.000270682
*RES
1 *195:Y *22:4 23 
2 *22:4 *22:16 42.2007 
3 *22:16 *205:B2 23 
4 *22:4 *22:33 44.2514 
5 *22:33 *200:A 23 
*END

*D_NET *23 0.00575082
*CONN
*I *205:A1_N I *D sky130_fd_sc_hd__a2bb2o_1
*I *204:B I *D sky130_fd_sc_hd__or4b_1
*I *198:B1 I *D sky130_fd_sc_hd__a31o_1
*I *197:D I *D sky130_fd_sc_hd__and4_1
*I *196:X O *D sky130_fd_sc_hd__and2_1
*CAP
1 *205:A1_N 8.55489e-05
2 *204:B 4.33954e-05
3 *198:B1 0.0001601
4 *197:D 0.000359285
5 *196:X 0.000533893
6 *23:40 0.000216801
7 *23:10 0.000680698
8 *23:8 0.000249169
9 *23:6 0.000533893
10 *197:D *197:A 2.31591e-05
11 *197:D *25:10 0.000227208
12 *197:D *75:12 2.21614e-05
13 *198:B1 *35:6 4.78593e-05
14 *198:B1 *65:14 9.64943e-05
15 *198:B1 *72:43 0.000242653
16 *204:B *37:12 5.56356e-05
17 *205:A1_N *204:C 8.43466e-05
18 *205:A1_N *205:A2_N 5.56279e-05
19 *205:A1_N *28:8 2.3529e-05
20 *205:A1_N *37:12 0.000139974
21 *23:6 *203:A 9.24795e-06
22 *23:6 *203:B 9.5877e-05
23 *23:6 *29:10 0.000481666
24 *23:6 *73:39 0.000569378
25 *23:6 *75:29 0.000137651
26 *23:6 *75:39 0.000165918
27 *23:10 *28:8 8.58484e-05
28 *23:10 *38:18 2.8183e-05
29 *23:40 *28:8 4.74809e-05
30 *198:A3 *197:D 0.0002263
31 *19:23 *197:D 2.18409e-05
*RES
1 *196:X *23:6 36.9614 
2 *23:6 *23:8 15 
3 *23:8 *23:10 2.96214 
4 *23:10 *197:D 44.1729 
5 *23:10 *198:B1 42.4743 
6 *23:8 *23:40 1.55357 
7 *23:40 *204:B 38.6214 
8 *23:40 *205:A1_N 40.4236 
*END

*D_NET *24 0.00125509
*CONN
*I *199:A_N I *D sky130_fd_sc_hd__and2b_1
*I *220:B1 I *D sky130_fd_sc_hd__a21o_1
*I *197:X O *D sky130_fd_sc_hd__and4_1
*CAP
1 *199:A_N 0
2 *220:B1 2.34823e-05
3 *197:X 0.000134399
4 *24:21 0.000185421
5 *24:6 0.000343303
6 *24:6 *25:10 0.000313244
7 *24:6 *35:6 0.000153145
8 *24:21 *25:18 0
9 *24:21 *26:10 0
10 *22:33 *24:6 7.27182e-05
11 *22:33 *24:21 2.93747e-05
*RES
1 *197:X *24:6 27.9093 
2 *24:6 *220:B1 23.4971 
3 *24:6 *24:21 33.2314 
4 *24:21 *199:A_N 23 
*END

*D_NET *25 0.00221613
*CONN
*I *220:A2 I *D sky130_fd_sc_hd__a21o_1
*I *199:B I *D sky130_fd_sc_hd__and2b_1
*I *198:X O *D sky130_fd_sc_hd__a31o_1
*CAP
1 *220:A2 0
2 *199:B 0
3 *198:X 0.000156847
4 *25:18 0.000365722
5 *25:10 0.00052257
6 *25:10 *197:A 5.50106e-05
7 *25:10 *35:6 0.000131595
8 *25:18 *35:10 8.72173e-05
9 *197:D *25:10 0.000227208
10 *22:33 *25:10 0.000356718
11 *24:6 *25:10 0.000313244
12 *24:21 *25:18 0
*RES
1 *198:X *25:10 30.4571 
2 *25:10 *25:18 36.09 
3 *25:18 *199:B 23 
4 *25:10 *220:A2 23 
*END

*D_NET *26 0.000320973
*CONN
*I *200:B I *D sky130_fd_sc_hd__xnor2_1
*I *199:X O *D sky130_fd_sc_hd__and2b_1
*CAP
1 *200:B 0
2 *199:X 0.000160487
3 *26:10 0.000160487
4 P[2] *26:10 0
5 *24:21 *26:10 0
*RES
1 *199:X *26:10 40.5271 
2 *26:10 *200:B 38 
*END

*D_NET *27 0.00444664
*CONN
*I *224:A1 I *D sky130_fd_sc_hd__o211a_1
*I *206:A_N I *D sky130_fd_sc_hd__nand3b_1
*I *207:B1_N I *D sky130_fd_sc_hd__a21bo_1
*I *239:A1 I *D sky130_fd_sc_hd__a21oi_1
*I *235:C I *D sky130_fd_sc_hd__and3_1
*I *201:Y O *D sky130_fd_sc_hd__nand2_1
*CAP
1 *224:A1 1.69585e-05
2 *206:A_N 0
3 *207:B1_N 0
4 *239:A1 0
5 *235:C 0
6 *201:Y 0
7 *27:65 0.000210754
8 *27:50 0.000759816
9 *27:44 0.000626759
10 *27:37 0.000174129
11 *27:29 0.000569056
12 *27:12 0.000105782
13 *27:4 0.000439971
14 *224:A1 *223:A 0
15 *224:A1 *48:8 2.37924e-05
16 *27:12 *235:A 6.04112e-05
17 *27:12 *73:14 8.4047e-05
18 *27:29 *201:A 0.000180218
19 *27:29 *210:C 1.95604e-05
20 *27:29 *224:B1 3.91386e-05
21 *27:29 *224:C1 0.000108944
22 *27:29 *235:A 0
23 *27:29 *73:21 2.32101e-05
24 *27:29 *74:20 1.00765e-05
25 *27:29 *77:8 0.000110922
26 *27:29 *78:71 0.000226306
27 *27:37 *48:16 7.90671e-05
28 *27:37 *59:10 0
29 *27:37 *62:8 6.48049e-05
30 *27:37 *74:20 1.58805e-05
31 *27:37 *77:8 0
32 *27:44 *223:A 1.57571e-05
33 *27:44 *48:8 1.99109e-05
34 *27:44 *78:71 1.76557e-05
35 *27:50 *223:A 9.88574e-06
36 *27:50 *223:B 7.44257e-05
37 *27:50 *48:8 2.80394e-05
38 *27:65 *206:C 0.0002129
39 *27:65 *31:8 1.01436e-05
40 *27:65 *32:14 5.3304e-05
41 *7:13 *27:12 0
42 *7:13 *27:29 5.50106e-05
*RES
1 *201:Y *27:4 23 
2 *27:4 *27:12 31.9057 
3 *27:12 *235:C 23 
4 *27:4 *27:29 37.4571 
5 *27:29 *27:37 33.5836 
6 *27:37 *239:A1 23 
7 *27:29 *27:44 1.33607 
8 *27:44 *27:50 9.95321 
9 *27:50 *207:B1_N 23 
10 *27:50 *27:65 34.6814 
11 *27:65 *206:A_N 23 
12 *27:44 *224:A1 23.8804 
*END

*D_NET *28 0.00143022
*CONN
*I *204:C I *D sky130_fd_sc_hd__or4b_1
*I *205:A2_N I *D sky130_fd_sc_hd__a2bb2o_1
*I *202:Y O *D sky130_fd_sc_hd__nand2_1
*CAP
1 *204:C 7.88645e-05
2 *205:A2_N 2.55396e-05
3 *202:Y 0.000278214
4 *28:10 0.000104404
5 *28:8 0.000278214
6 *204:C *204:D_N 9.91101e-05
7 *204:C *37:12 7.25499e-05
8 *205:A2_N *204:D_N 0.000100061
9 *205:A2_N *37:12 1.47394e-05
10 *28:8 *75:29 8.16894e-05
11 *28:8 *76:77 0
12 *205:A1_N *204:C 8.43466e-05
13 *205:A1_N *205:A2_N 5.56279e-05
14 *205:A1_N *28:8 2.3529e-05
15 *23:10 *28:8 8.58484e-05
16 *23:40 *28:8 4.74809e-05
*RES
1 *202:Y *28:8 43.075 
2 *28:8 *28:10 15 
3 *28:10 *205:A2_N 24.0979 
4 *28:10 *204:C 25.5271 
*END

*D_NET *29 0.00227664
*CONN
*I *204:D_N I *D sky130_fd_sc_hd__or4b_1
*I *205:B1 I *D sky130_fd_sc_hd__a2bb2o_1
*I *203:X O *D sky130_fd_sc_hd__and2_1
*CAP
1 *204:D_N 0.000228146
2 *205:B1 0
3 *203:X 0.000476788
4 *29:12 0.000228146
5 *29:10 0.000476788
6 *204:D_N *37:12 2.64363e-05
7 *29:10 *76:77 1.02387e-05
8 *204:C *204:D_N 9.91101e-05
9 *205:A2_N *204:D_N 0.000100061
10 *22:16 *204:D_N 4.0578e-05
11 *22:16 *29:10 0.000108681
12 *23:6 *29:10 0.000481666
*RES
1 *203:X *29:10 45.2914 
2 *29:10 *29:12 15 
3 *29:12 *205:B1 23 
4 *29:12 *204:D_N 28.0957 
*END

*D_NET *30 0.0024478
*CONN
*I *230:A1 I *D sky130_fd_sc_hd__a21o_1
*I *229:A I *D sky130_fd_sc_hd__and3_1
*I *206:B I *D sky130_fd_sc_hd__nand3b_1
*I *207:A1 I *D sky130_fd_sc_hd__a21bo_1
*I *204:X O *D sky130_fd_sc_hd__or4b_1
*CAP
1 *230:A1 0
2 *229:A 0
3 *206:B 2.81195e-05
4 *207:A1 5.31949e-05
5 *204:X 0.000106728
6 *30:51 0.000348321
7 *30:36 0.00041306
8 *30:25 0.000221546
9 *30:12 0.000301022
10 *30:8 0.000225868
11 *206:B *32:14 5.56279e-05
12 *207:A1 *207:A2 5.79559e-05
13 *30:8 *31:8 0
14 *30:12 *33:10 6.78027e-05
15 *30:25 *206:C 7.41334e-05
16 *30:25 *31:8 1.19692e-05
17 *30:25 *32:27 9.12438e-05
18 *30:36 *229:C 1.56542e-05
19 *30:36 *32:14 5.3304e-05
20 *30:36 *32:27 1.83408e-05
21 *30:51 *229:C 5.56279e-05
22 *30:51 *234:A2 0.000187214
23 *30:51 *32:27 1.51099e-05
24 *30:51 *53:23 4.59567e-05
*RES
1 *204:X *30:8 39.9057 
2 *30:8 *30:12 17.5271 
3 *30:12 *207:A1 24.0979 
4 *30:12 *30:25 33.3143 
5 *30:25 *206:B 23.6214 
6 *30:25 *30:36 1.595 
7 *30:36 *229:A 23 
8 *30:36 *30:51 35.1786 
9 *30:51 *230:A1 23 
*END

*D_NET *31 0.000962531
*CONN
*I *206:C I *D sky130_fd_sc_hd__nand3b_1
*I *207:A2 I *D sky130_fd_sc_hd__a21bo_1
*I *205:X O *D sky130_fd_sc_hd__a2bb2o_1
*CAP
1 *206:C 0.000122959
2 *207:A2 5.62478e-05
3 *205:X 0.000118508
4 *31:8 0.000297714
5 *207:A1 *207:A2 5.79559e-05
6 *27:65 *206:C 0.0002129
7 *27:65 *31:8 1.01436e-05
8 *30:8 *31:8 0
9 *30:25 *206:C 7.41334e-05
10 *30:25 *31:8 1.19692e-05
*RES
1 *205:X *31:8 40.2579 
2 *31:8 *207:A2 39.0979 
3 *31:8 *206:C 41.5836 
*END

*D_NET *32 0.00281583
*CONN
*I *216:A I *D sky130_fd_sc_hd__nand3_1
*I *215:A I *D sky130_fd_sc_hd__and3_1
*I *217:A1 I *D sky130_fd_sc_hd__a21oi_1
*I *229:B I *D sky130_fd_sc_hd__and3_1
*I *230:A2 I *D sky130_fd_sc_hd__a21o_1
*I *206:Y O *D sky130_fd_sc_hd__nand3b_1
*CAP
1 *216:A 4.39733e-05
2 *215:A 1.15524e-05
3 *217:A1 1.79949e-05
4 *229:B 0
5 *230:A2 0
6 *206:Y 0
7 *32:47 0.000117654
8 *32:36 0.000289548
9 *32:27 0.000401863
10 *32:14 0.000193362
11 *32:4 0.0003858
12 *215:A *217:B1 9.72057e-06
13 *215:A *40:25 4.00259e-06
14 *216:A *216:B 0.000194806
15 *216:A *217:B1 6.07536e-05
16 *216:A *33:18 1.22822e-05
17 *216:A *40:25 0.000109312
18 *217:A1 *217:B1 5.90675e-06
19 *32:14 *229:C 0.000332411
20 *32:14 *49:25 0
21 *32:27 *229:C 3.15547e-06
22 *32:36 *229:C 8.44405e-06
23 *32:36 *33:18 5.50106e-05
24 *32:36 *54:10 2.30292e-05
25 *32:47 *216:B 1.14154e-05
26 *32:47 *217:B1 5.69698e-05
27 *32:47 *33:18 0.000179932
28 *206:B *32:14 5.56279e-05
29 *27:65 *32:14 5.3304e-05
30 *30:25 *32:27 9.12438e-05
31 *30:36 *32:14 5.3304e-05
32 *30:36 *32:27 1.83408e-05
33 *30:51 *32:27 1.51099e-05
*RES
1 *206:Y *32:4 23 
2 *32:4 *32:14 34.93 
3 *32:14 *230:A2 23 
4 *32:4 *32:27 33.1279 
5 *32:27 *229:B 23 
6 *32:27 *32:36 4.32929 
7 *32:36 *217:A1 23.4971 
8 *32:36 *32:47 3.02429 
9 *32:47 *215:A 23.4971 
10 *32:47 *216:A 26.2107 
*END

*D_NET *33 0.00221097
*CONN
*I *217:A2 I *D sky130_fd_sc_hd__a21oi_1
*I *215:B I *D sky130_fd_sc_hd__and3_1
*I *216:B I *D sky130_fd_sc_hd__nand3_1
*I *207:X O *D sky130_fd_sc_hd__a21bo_1
*CAP
1 *217:A2 6.17609e-05
2 *215:B 2.93293e-05
3 *216:B 0.000117216
4 *207:X 0.000408109
5 *33:18 0.000347724
6 *33:10 0.000671048
7 *216:B *40:25 2.91168e-05
8 *33:10 *43:8 2.5415e-05
9 *216:A *216:B 0.000194806
10 *216:A *33:18 1.22822e-05
11 *30:12 *33:10 6.78027e-05
12 *32:36 *33:18 5.50106e-05
13 *32:47 *216:B 1.14154e-05
14 *32:47 *33:18 0.000179932
*RES
1 *207:X *33:10 43.9864 
2 *33:10 *33:18 19.1221 
3 *33:18 *216:B 26.8736 
4 *33:18 *215:B 23.6214 
5 *33:10 *217:A2 38.8493 
*END

*D_NET *34 0.00487454
*CONN
*I *209:D I *D sky130_fd_sc_hd__nand4_1
*I *226:A I *D sky130_fd_sc_hd__nand2_1
*I *225:A I *D sky130_fd_sc_hd__nor2_1
*I *227:A I *D sky130_fd_sc_hd__xor2_1
*I *212:A3 I *D sky130_fd_sc_hd__a31o_1
*I *208:Y O *D sky130_fd_sc_hd__nand4_2
*CAP
1 *209:D 8.113e-05
2 *226:A 0
3 *225:A 0
4 *227:A 0
5 *212:A3 0
6 *208:Y 0.000422289
7 *34:58 0.000197316
8 *34:42 0.000318872
9 *34:27 0.0010147
10 *34:19 0.00104333
11 *34:10 0.00049134
12 *209:D *38:10 0.000172197
13 *209:D *65:14 5.67058e-05
14 *34:10 *64:25 1.82198e-05
15 *34:10 *64:33 1.99429e-05
16 *34:19 *38:10 5.67058e-05
17 *34:27 *203:B 0
18 *34:27 *210:B 0
19 *34:27 *36:14 0
20 *34:27 *38:10 0
21 *34:27 *49:8 0.000100283
22 *34:27 *49:25 0
23 *34:27 *73:39 3.884e-05
24 *34:27 *75:39 0
25 *34:27 *75:49 0
26 *34:27 *76:77 0
27 *34:27 *78:42 0
28 *34:42 *225:B 7.47664e-05
29 *34:42 *227:B 0.00011554
30 *34:42 *36:16 1.5418e-05
31 *34:58 *225:B 2.93597e-05
32 *34:58 *236:A1 7.44161e-06
33 *34:58 *236:B1 1.94693e-05
34 *34:58 *36:14 4.6318e-06
35 *34:58 *51:12 2.33476e-05
36 *34:58 *62:8 2.78332e-05
37 *209:C *209:D 0.000255636
38 *212:B1 *34:10 5.6062e-05
39 *212:B1 *34:19 5.79252e-05
40 *20:10 *34:27 1.58805e-05
41 *20:25 *209:D 5.50106e-05
42 *20:25 *34:19 8.43466e-05
*RES
1 *208:Y *34:10 29.38 
2 *34:10 *212:A3 23 
3 *34:10 *34:19 2.07143 
4 *34:19 *34:27 44.5 
5 *34:27 *227:A 23 
6 *34:27 *34:42 3.78036 
7 *34:42 *34:58 33.7596 
8 *34:58 *225:A 23 
9 *34:42 *226:A 23 
10 *34:19 *209:D 26.48 
*END

*D_NET *35 0.00426376
*CONN
*I *213:A I *D sky130_fd_sc_hd__nand3_1
*I *214:B1_N I *D sky130_fd_sc_hd__a21bo_1
*I *219:A1 I *D sky130_fd_sc_hd__a21o_1
*I *209:Y O *D sky130_fd_sc_hd__nand4_1
*CAP
1 *213:A 0.000189199
2 *214:B1_N 4.26123e-05
3 *219:A1 4.24857e-05
4 *209:Y 0.000785391
5 *35:21 0.000486021
6 *35:10 0.000454858
7 *35:6 0.000943553
8 *213:A *213:B 8.66858e-05
9 *213:A *213:C 0
10 *213:A *219:B1 4.6318e-06
11 *213:A *43:16 3.71369e-05
12 *214:B1_N *37:12 9.84794e-05
13 *35:6 *197:A 0.000173544
14 *35:6 *198:A1 5.79559e-05
15 *35:6 *65:14 0.000228168
16 *35:6 *72:43 1.10658e-05
17 *35:21 *219:B1 9.04083e-05
18 *35:21 *46:10 0
19 *198:B1 *35:6 4.78593e-05
20 *19:23 *35:10 0
21 *21:27 *219:A1 5.50106e-05
22 *21:27 *35:10 4.08537e-05
23 *21:27 *35:21 1.58805e-05
24 *22:33 *35:10 0
25 *24:6 *35:6 0.000153145
26 *25:10 *35:6 0.000131595
27 *25:18 *35:10 8.72173e-05
*RES
1 *209:Y *35:6 35.0557 
2 *35:6 *35:10 17.9621 
3 *35:10 *219:A1 38.6214 
4 *35:10 *35:21 3.66643 
5 *35:21 *214:B1_N 39.0979 
6 *35:21 *213:A 42.06 
*END

*D_NET *36 0.00301147
*CONN
*I *211:C I *D sky130_fd_sc_hd__and3_1
*I *226:B I *D sky130_fd_sc_hd__nand2_1
*I *227:B I *D sky130_fd_sc_hd__xor2_1
*I *225:B I *D sky130_fd_sc_hd__nor2_1
*I *210:Y O *D sky130_fd_sc_hd__nand4_2
*CAP
1 *211:C 0.000215842
2 *226:B 0
3 *227:B 9.1823e-05
4 *225:B 5.01209e-05
5 *210:Y 7.62804e-05
6 *36:16 0.000152867
7 *36:14 0.000365177
8 *36:8 0.000646377
9 *211:C *210:A 0.00021477
10 *211:C *76:77 0.000107741
11 *225:B *236:A1 0.000139653
12 *227:B *236:A1 4.08664e-05
13 *227:B *49:25 0.000140259
14 *36:8 *210:A 5.23699e-05
15 *36:8 *73:29 5.14746e-06
16 *36:14 *203:B 1.92797e-05
17 *36:14 *223:B 7.17297e-05
18 *36:14 *48:16 7.91206e-05
19 *36:14 *49:8 0.00030233
20 *36:14 *62:8 0
21 *34:27 *36:14 0
22 *34:42 *225:B 7.47664e-05
23 *34:42 *227:B 0.00011554
24 *34:42 *36:16 1.5418e-05
25 *34:58 *225:B 2.93597e-05
26 *34:58 *36:14 4.6318e-06
*RES
1 *210:Y *36:8 24.4707 
2 *36:8 *36:14 37.54 
3 *36:14 *36:16 0.497143 
4 *36:16 *225:B 25.3614 
5 *36:16 *227:B 25.9 
6 *36:14 *226:B 23 
7 *36:8 *211:C 26.5629 
*END

*D_NET *37 0.00358248
*CONN
*I *214:A1 I *D sky130_fd_sc_hd__a21bo_1
*I *213:B I *D sky130_fd_sc_hd__nand3_1
*I *219:B1 I *D sky130_fd_sc_hd__a21o_1
*I *211:X O *D sky130_fd_sc_hd__and3_1
*CAP
1 *214:A1 0
2 *213:B 0.00013772
3 *219:B1 0.000181699
4 *211:X 0.00100656
5 *37:14 0.000319419
6 *37:12 0.00100656
7 *213:B *213:C 7.90464e-05
8 *213:B *38:37 6.07611e-06
9 *213:B *43:16 4.38068e-06
10 *219:B1 *219:A2 2.02517e-05
11 *219:B1 *38:37 0.000119841
12 *219:B1 *46:10 0
13 *37:12 *76:77 2.45549e-06
14 *204:B *37:12 5.56356e-05
15 *204:C *37:12 7.25499e-05
16 *204:D_N *37:12 2.64363e-05
17 *205:A1_N *37:12 0.000139974
18 *205:A2_N *37:12 1.47394e-05
19 *213:A *213:B 8.66858e-05
20 *213:A *219:B1 4.6318e-06
21 *214:B1_N *37:12 9.84794e-05
22 *21:27 *219:B1 1.24376e-05
23 *22:16 *37:12 9.65e-05
24 *35:21 *219:B1 9.04083e-05
*RES
1 *211:X *37:12 39.53 
2 *37:12 *37:14 15 
3 *37:14 *219:B1 41.7286 
4 *37:14 *213:B 41.3764 
5 *37:12 *214:A1 23 
*END

*D_NET *38 0.00493236
*CONN
*I *213:C I *D sky130_fd_sc_hd__nand3_1
*I *214:A2 I *D sky130_fd_sc_hd__a21bo_1
*I *219:A2 I *D sky130_fd_sc_hd__a21o_1
*I *212:X O *D sky130_fd_sc_hd__a31o_1
*CAP
1 *213:C 0.000160851
2 *214:A2 4.24511e-05
3 *219:A2 1.64097e-05
4 *212:X 0.000226927
5 *38:37 0.000448696
6 *38:22 0.000561975
7 *38:18 0.000532792
8 *38:10 0.000459547
9 *213:C *221:C 0
10 *213:C *39:10 2.93845e-05
11 *213:C *40:10 4.23714e-05
12 *213:C *43:16 1.94812e-05
13 *213:C *47:8 0
14 *38:10 *76:58 0.00015795
15 *38:10 *76:77 2.46345e-05
16 *38:18 *194:A 8.46778e-05
17 *38:18 *195:B 5.56279e-05
18 *38:18 *203:A 5.3304e-05
19 *38:18 *73:39 3.74951e-05
20 *38:18 *75:39 0.000403013
21 *38:22 *195:B 0.000100069
22 *38:22 *75:29 9.61399e-05
23 *38:37 *221:C 0
24 *38:37 *46:10 0
25 *209:D *38:10 0.000172197
26 *213:A *213:C 0
27 *213:B *213:C 7.90464e-05
28 *213:B *38:37 6.07611e-06
29 *219:B1 *219:A2 2.02517e-05
30 *219:B1 *38:37 0.000119841
31 *20:10 *38:10 0
32 *21:6 *38:22 2.46906e-05
33 *21:14 *38:18 7.69256e-06
34 *21:27 *38:22 0.000346679
35 *21:27 *38:37 2.61526e-05
36 *22:16 *38:18 0.000491048
37 *23:10 *38:18 2.8183e-05
38 *34:19 *38:10 5.67058e-05
39 *34:27 *38:10 0
*RES
1 *212:X *38:10 43.1371 
2 *38:10 *38:18 37.6643 
3 *38:18 *38:22 23.2443 
4 *38:22 *219:A2 23.4971 
5 *38:22 *38:37 19.8057 
6 *38:37 *214:A2 38.6214 
7 *38:37 *213:C 41.5836 
*END

*D_NET *39 0.00153243
*CONN
*I *241:A1 I *D sky130_fd_sc_hd__a21o_1
*I *221:A I *D sky130_fd_sc_hd__nand3_2
*I *213:Y O *D sky130_fd_sc_hd__nand3_1
*CAP
1 *241:A1 7.48528e-05
2 *221:A 0
3 *213:Y 0.00054941
4 *39:12 7.48528e-05
5 *39:10 0.00054941
6 *241:A1 *241:A2 6.65342e-05
7 *241:A1 *241:B1 2.90712e-05
8 *39:10 *242:A 2.64616e-05
9 *39:10 *43:16 1.83763e-05
10 *39:10 *47:8 0.000114074
11 *39:10 *63:8 0
12 *213:C *39:10 2.93845e-05
*RES
1 *213:Y *39:10 45.2914 
2 *39:10 *39:12 15 
3 *39:12 *221:A 23 
4 *39:12 *241:A1 25.0921 
*END

*D_NET *40 0.00191924
*CONN
*I *215:C I *D sky130_fd_sc_hd__and3_1
*I *217:B1 I *D sky130_fd_sc_hd__a21oi_1
*I *216:C I *D sky130_fd_sc_hd__nand3_1
*I *214:X O *D sky130_fd_sc_hd__a21bo_1
*CAP
1 *215:C 0
2 *217:B1 0.000190657
3 *216:C 0
4 *214:X 0.000332132
5 *40:25 0.000324237
6 *40:12 0.00013358
7 *40:10 0.000332132
8 *40:10 *42:8 1.86869e-05
9 *40:10 *43:16 8.51329e-05
10 *40:10 *47:8 0
11 *40:10 *47:21 0
12 *40:25 *41:10 0.000184527
13 *213:C *40:10 4.23714e-05
14 *215:A *217:B1 9.72057e-06
15 *215:A *40:25 4.00259e-06
16 *216:A *217:B1 6.07536e-05
17 *216:A *40:25 0.000109312
18 *216:B *40:25 2.91168e-05
19 *217:A1 *217:B1 5.90675e-06
20 *32:47 *217:B1 5.69698e-05
*RES
1 *214:X *40:10 44.1729 
2 *40:10 *40:12 15 
3 *40:12 *216:C 23 
4 *40:12 *40:25 4.03411 
5 *40:25 *217:B1 26.4852 
6 *40:25 *215:C 23 
*END

*D_NET *41 0.000694271
*CONN
*I *218:A I *D sky130_fd_sc_hd__nor2_1
*I *215:X O *D sky130_fd_sc_hd__and3_1
*CAP
1 *218:A 0
2 *215:X 0.000196738
3 *41:10 0.000196738
4 *41:10 *42:8 4.58924e-05
5 *41:10 *43:16 7.03766e-05
6 *40:25 *41:10 0.000184527
*RES
1 *215:X *41:10 41.9564 
2 *41:10 *218:A 38 
*END

*D_NET *42 0.0014172
*CONN
*I *232:B1 I *D sky130_fd_sc_hd__o21a_1
*I *234:B2 I *D sky130_fd_sc_hd__o221ai_4
*I *216:Y O *D sky130_fd_sc_hd__nand3_1
*CAP
1 *232:B1 0.000132575
2 *234:B2 0.000235559
3 *216:Y 0.000217391
4 *42:8 0.000585525
5 *232:B1 *232:A1 0
6 *232:B1 *47:38 7.03869e-05
7 *234:B2 *234:A2 0.00010655
8 *42:8 *232:A1 0
9 *42:8 *47:38 4.6318e-06
10 *40:10 *42:8 1.86869e-05
11 *41:10 *42:8 4.58924e-05
*RES
1 *216:Y *42:8 41.6664 
2 *42:8 *234:B2 42.93 
3 *42:8 *232:B1 40.9621 
*END

*D_NET *43 0.00226209
*CONN
*I *232:A1 I *D sky130_fd_sc_hd__o21a_1
*I *218:B I *D sky130_fd_sc_hd__nor2_1
*I *217:Y O *D sky130_fd_sc_hd__a21oi_1
*CAP
1 *232:A1 0.000208468
2 *218:B 0
3 *217:Y 7.40113e-05
4 *43:16 0.00090393
5 *43:8 0.000769473
6 *232:A1 *47:21 0
7 *232:A1 *47:38 4.59027e-05
8 *43:16 *47:21 0
9 *213:A *43:16 3.71369e-05
10 *213:B *43:16 4.38068e-06
11 *213:C *43:16 1.94812e-05
12 *232:B1 *232:A1 0
13 *33:10 *43:8 2.5415e-05
14 *39:10 *43:16 1.83763e-05
15 *40:10 *43:16 8.51329e-05
16 *41:10 *43:16 7.03766e-05
17 *42:8 *232:A1 0
*RES
1 *217:Y *43:8 39.2014 
2 *43:8 *43:16 41.0614 
3 *43:16 *218:B 38 
4 *43:16 *232:A1 42.06 
*END

*D_NET *44 0.000416
*CONN
*I *222:A I *D sky130_fd_sc_hd__xnor2_1
*I *218:Y O *D sky130_fd_sc_hd__nor2_1
*CAP
1 *222:A 0.000144576
2 *218:Y 0.000144576
3 *222:A *254:A 0
4 *222:A *47:23 0.000126847
*RES
1 *218:Y *222:A 49.0243 
*END

*D_NET *45 0.00125382
*CONN
*I *241:A2 I *D sky130_fd_sc_hd__a21o_1
*I *221:B I *D sky130_fd_sc_hd__nand3_2
*I *219:X O *D sky130_fd_sc_hd__a21o_1
*CAP
1 *241:A2 0.000107481
2 *221:B 0
3 *219:X 0.000365526
4 *45:12 0.000107481
5 *45:10 0.000365526
6 *241:A2 *241:B1 0.000185884
7 *45:10 *221:C 2.22183e-05
8 *45:10 *46:10 3.31683e-05
9 *241:A1 *241:A2 6.65342e-05
*RES
1 *219:X *45:10 43.2614 
2 *45:10 *45:12 15 
3 *45:12 *221:B 23 
4 *45:12 *241:A2 26.6664 
*END

*D_NET *46 0.00169644
*CONN
*I *221:C I *D sky130_fd_sc_hd__nand3_2