*SPEF "ieee 1481-1999"
*DESIGN "mult8_2bits_2op_e2470"
*DATE "12:13:44 Wednesday September 17, 2025"
*VENDOR "The OpenROAD Project"
*PROGRAM "OpenROAD"
*VERSION "edf00dff99f6c40d67a30c0e22a8191c5d2ed9d6"
*DESIGN_FLOW "NAME_SCOPE LOCAL" "PIN_CAP NONE"
*DIVIDER /
*DELIMITER :
*BUS_DELIMITER []
*T_UNIT 1 NS
*C_UNIT 1 PF
*R_UNIT 1 OHM
*L_UNIT 1 HENRY

*NAME_MAP
*1 A[0]
*2 A[1]
*3 A[2]
*4 A[3]
*5 A[4]
*6 A[5]
*7 A[6]
*8 A[7]
*9 B[0]
*10 B[1]
*11 B[2]
*12 B[3]
*13 B[4]
*14 B[5]
*15 B[6]
*16 B[7]
*17 P[0]
*18 P[10]
*19 P[11]
*20 P[12]
*21 P[13]
*22 P[14]
*23 P[15]
*24 P[1]
*25 P[2]
*26 P[3]
*27 P[4]
*28 P[5]
*29 P[6]
*30 P[7]
*31 P[8]
*32 P[9]
*35 _000_
*36 _001_
*37 _002_
*38 _003_
*39 _004_
*40 _005_
*41 _006_
*42 _007_
*43 _008_
*44 _009_
*45 _010_
*46 _011_
*47 _012_
*48 _013_
*49 _014_
*50 _015_
*51 _016_
*52 _017_
*53 _018_
*54 _019_
*55 _020_
*56 _021_
*57 _022_
*58 _023_
*59 _024_
*60 _025_
*61 _026_
*62 _027_
*63 _028_
*64 _029_
*65 _030_
*66 _031_
*67 _032_
*68 _033_
*69 _034_
*70 _035_
*71 _036_
*72 _037_
*73 _038_
*74 _039_
*75 _040_
*76 _041_
*77 _042_
*78 _043_
*79 _044_
*80 _045_
*81 _046_
*82 _047_
*83 _048_
*84 _049_
*85 _050_
*86 _051_
*87 _052_
*88 _053_
*89 _054_
*90 _055_
*91 _056_
*92 _057_
*93 _058_
*94 _059_
*95 _060_
*96 _061_
*97 _062_
*98 _063_
*99 _064_
*100 _065_
*101 _066_
*102 _067_
*103 _068_
*104 _069_
*105 _070_
*106 _071_
*107 _072_
*108 _073_
*109 _074_
*110 _075_
*111 _076_
*112 _077_
*113 _078_
*114 _079_
*115 _080_
*116 _081_
*117 _082_
*118 _083_
*119 _084_
*120 _085_
*121 _086_
*122 _087_
*123 _088_
*124 _089_
*125 _090_
*126 _091_
*127 _092_
*128 _093_
*129 _094_
*130 _095_
*131 _096_
*132 _097_
*133 _098_
*134 _099_
*135 _100_
*136 _101_
*137 _102_
*138 _103_
*139 _104_
*140 _105_
*141 _106_
*142 _107_
*143 _108_
*144 _109_
*145 _110_
*146 _111_
*147 _112_
*148 _113_
*149 _114_
*150 _115_
*151 _116_
*152 _117_
*153 _118_
*154 _119_
*155 _120_
*156 _121_
*157 _122_
*158 _123_
*159 _124_
*160 _125_
*161 _126_
*162 _127_
*163 _128_
*164 _129_
*165 _130_
*166 _131_
*167 _132_
*168 _133_
*169 _134_
*170 _135_
*171 _136_
*172 _137_
*173 _138_
*174 _139_
*175 _140_
*176 _141_
*177 _142_
*178 _143_
*179 _144_
*180 _145_
*181 _146_
*182 _147_
*183 _148_
*184 _149_
*185 _150_
*186 _151_
*187 _152_
*188 _153_
*189 _154_
*190 _155_
*191 _156_
*192 _157_
*193 _158_
*194 _159_
*195 _160_
*196 _161_
*197 _162_
*198 _163_
*199 _164_
*200 _165_
*201 _166_
*202 _167_
*203 _168_
*204 _169_
*205 _170_
*206 _171_
*207 _172_
*208 _173_
*209 _174_
*210 _175_
*211 _176_
*212 _177_
*213 _178_
*214 _179_
*215 _180_
*216 _181_
*217 _182_
*218 _183_
*219 _184_
*220 _185_
*221 _186_
*222 _187_
*223 _188_
*224 _189_
*225 _190_
*226 _191_
*227 _192_
*228 _193_
*229 _194_
*230 _195_
*231 _196_
*232 _197_
*233 _198_
*234 _199_
*235 _200_
*236 _201_
*237 _202_
*238 _203_
*239 _204_
*240 _205_
*241 _206_
*242 _207_
*243 _208_
*244 _209_
*245 _210_
*246 _211_
*247 _212_
*248 _213_
*249 _214_
*250 _215_
*251 _216_
*252 _217_
*253 _218_
*254 _219_
*255 _220_
*256 _221_
*257 _222_
*258 _223_
*259 _224_
*260 _225_
*261 _226_
*262 _227_
*263 _228_
*264 _229_
*265 _230_
*266 _231_
*267 _232_
*268 _233_
*269 _234_
*270 _235_
*271 _236_
*272 _237_
*273 _238_
*274 _239_
*275 _240_
*276 _241_
*277 _242_
*278 _243_
*279 _244_
*280 _245_
*281 _246_
*282 _247_
*283 _248_
*284 _249_
*285 _250_
*286 _251_
*287 _252_
*288 _253_
*289 _254_
*290 _255_
*291 _256_
*292 _257_
*293 _258_
*294 _259_
*295 _260_
*296 _261_
*297 _262_
*298 _263_
*299 _264_
*300 _265_
*301 _266_
*302 net1
*303 net10
*304 net11
*305 net12
*306 net13
*307 net14
*308 net15
*309 net16
*310 net17
*311 net18
*312 net19
*313 net2
*314 net20
*315 net21
*316 net22
*317 net23
*318 net24
*319 net25
*320 net26
*321 net27
*322 net28
*323 net29
*324 net3
*325 net30
*326 net31
*327 net32
*328 net33
*329 net34
*330 net35
*331 net36
*332 net37
*333 net38
*334 net39
*335 net4
*336 net40
*337 net41
*338 net42
*339 net43
*340 net44
*341 net45
*342 net46
*343 net47
*344 net48
*345 net49
*346 net5
*347 net50
*348 net51
*349 net52
*350 net53
*351 net54
*352 net55
*353 net56
*354 net57
*355 net58
*356 net59
*357 net6
*358 net60
*359 net61
*360 net62
*361 net63
*362 net64
*363 net65
*364 net66
*365 net7
*366 net8
*367 net9
*368 ANTENNA_1
*369 FILLER_0_105
*370 FILLER_0_113
*371 FILLER_0_121
*372 FILLER_0_138
*373 FILLER_0_141
*374 FILLER_0_147
*375 FILLER_0_15
*376 FILLER_0_154
*377 FILLER_0_161
*378 FILLER_0_169
*379 FILLER_0_174
*380 FILLER_0_194
*381 FILLER_0_197
*382 FILLER_0_209
*383 FILLER_0_217
*384 FILLER_0_225
*385 FILLER_0_237
*386 FILLER_0_249
*387 FILLER_0_253
*388 FILLER_0_265
*389 FILLER_0_27
*390 FILLER_0_277
*391 FILLER_0_281
*392 FILLER_0_29
*393 FILLER_0_293
*394 FILLER_0_3
*395 FILLER_0_305
*396 FILLER_0_309
*397 FILLER_0_321
*398 FILLER_0_333
*399 FILLER_0_337
*400 FILLER_0_349
*401 FILLER_0_361
*402 FILLER_0_365
*403 FILLER_0_377
*404 FILLER_0_389
*405 FILLER_0_393
*406 FILLER_0_405
*407 FILLER_0_41
*408 FILLER_0_53
*409 FILLER_0_57
*410 FILLER_0_69
*411 FILLER_0_81
*412 FILLER_0_85
*413 FILLER_0_97
*414 FILLER_10_109
*415 FILLER_10_121
*416 FILLER_10_133
*417 FILLER_10_139
*418 FILLER_10_141
*419 FILLER_10_15
*420 FILLER_10_153
*421 FILLER_10_174
*422 FILLER_10_182
*423 FILLER_10_197
*424 FILLER_10_209
*425 FILLER_10_221
*426 FILLER_10_233
*427 FILLER_10_245
*428 FILLER_10_251
*429 FILLER_10_253
*430 FILLER_10_265
*431 FILLER_10_27
*432 FILLER_10_277
*433 FILLER_10_289
*434 FILLER_10_29
*435 FILLER_10_3
*436 FILLER_10_301
*437 FILLER_10_307
*438 FILLER_10_309
*439 FILLER_10_321
*440 FILLER_10_333
*441 FILLER_10_345
*442 FILLER_10_357
*443 FILLER_10_363
*444 FILLER_10_365
*445 FILLER_10_377
*446 FILLER_10_389
*447 FILLER_10_401
*448 FILLER_10_41
*449 FILLER_10_53
*450 FILLER_10_65
*451 FILLER_10_77
*452 FILLER_10_83
*453 FILLER_10_85
*454 FILLER_10_97
*455 FILLER_11_105
*456 FILLER_11_111
*457 FILLER_11_113
*458 FILLER_11_125
*459 FILLER_11_137
*460 FILLER_11_149
*461 FILLER_11_15
*462 FILLER_11_157
*463 FILLER_11_161
*464 FILLER_11_167
*465 FILLER_11_194
*466 FILLER_11_206
*467 FILLER_11_218
*468 FILLER_11_233
*469 FILLER_11_245
*470 FILLER_11_257
*471 FILLER_11_269
*472 FILLER_11_27
*473 FILLER_11_277
*474 FILLER_11_281
*475 FILLER_11_293
*476 FILLER_11_3
*477 FILLER_11_305
*478 FILLER_11_317
*479 FILLER_11_329
*480 FILLER_11_335
*481 FILLER_11_337
*482 FILLER_11_349
*483 FILLER_11_361
*484 FILLER_11_373
*485 FILLER_11_385
*486 FILLER_11_39
*487 FILLER_11_391
*488 FILLER_11_393
*489 FILLER_11_405
*490 FILLER_11_51
*491 FILLER_11_55
*492 FILLER_11_57
*493 FILLER_11_69
*494 FILLER_11_81
*495 FILLER_11_93
*496 FILLER_12_109
*497 FILLER_12_121
*498 FILLER_12_133
*499 FILLER_12_139
*500 FILLER_12_141
*501 FILLER_12_15
*502 FILLER_12_195
*503 FILLER_12_197
*504 FILLER_12_209
*505 FILLER_12_221
*506 FILLER_12_233
*507 FILLER_12_245
*508 FILLER_12_251
*509 FILLER_12_253
*510 FILLER_12_265
*511 FILLER_12_27
*512 FILLER_12_277
*513 FILLER_12_289
*514 FILLER_12_29
*515 FILLER_12_3
*516 FILLER_12_301
*517 FILLER_12_307
*518 FILLER_12_309
*519 FILLER_12_321
*520 FILLER_12_333
*521 FILLER_12_345
*522 FILLER_12_357
*523 FILLER_12_363
*524 FILLER_12_365
*525 FILLER_12_377
*526 FILLER_12_389
*527 FILLER_12_401
*528 FILLER_12_41
*529 FILLER_12_53
*530 FILLER_12_65
*531 FILLER_12_77
*532 FILLER_12_83
*533 FILLER_12_85
*534 FILLER_12_97
*535 FILLER_13_105
*536 FILLER_13_111
*537 FILLER_13_113
*538 FILLER_13_125
*539 FILLER_13_137
*540 FILLER_13_149
*541 FILLER_13_15
*542 FILLER_13_161
*543 FILLER_13_167
*544 FILLER_13_172
*545 FILLER_13_192
*546 FILLER_13_204
*547 FILLER_13_216
*548 FILLER_13_245
*549 FILLER_13_257
*550 FILLER_13_269
*551 FILLER_13_27
*552 FILLER_13_277
*553 FILLER_13_281
*554 FILLER_13_293
*555 FILLER_13_3
*556 FILLER_13_305
*557 FILLER_13_317
*558 FILLER_13_329
*559 FILLER_13_335
*560 FILLER_13_337
*561 FILLER_13_349
*562 FILLER_13_361
*563 FILLER_13_373
*564 FILLER_13_385
*565 FILLER_13_39
*566 FILLER_13_391
*567 FILLER_13_393
*568 FILLER_13_405
*569 FILLER_13_51
*570 FILLER_13_55
*571 FILLER_13_57
*572 FILLER_13_69
*573 FILLER_13_81
*574 FILLER_13_93
*575 FILLER_14_109
*576 FILLER_14_121
*577 FILLER_14_133
*578 FILLER_14_139
*579 FILLER_14_141
*580 FILLER_14_15
*581 FILLER_14_153
*582 FILLER_14_165
*583 FILLER_14_175
*584 FILLER_14_187
*585 FILLER_14_195
*586 FILLER_14_197
*587 FILLER_14_209
*588 FILLER_14_227
*589 FILLER_14_235
*590 FILLER_14_247
*591 FILLER_14_251
*592 FILLER_14_253
*593 FILLER_14_265
*594 FILLER_14_27
*595 FILLER_14_277
*596 FILLER_14_289
*597 FILLER_14_29
*598 FILLER_14_3
*599 FILLER_14_301
*600 FILLER_14_307
*601 FILLER_14_309
*602 FILLER_14_321
*603 FILLER_14_333
*604 FILLER_14_345
*605 FILLER_14_357
*606 FILLER_14_363
*607 FILLER_14_365
*608 FILLER_14_377
*609 FILLER_14_389
*610 FILLER_14_401
*611 FILLER_14_41
*612 FILLER_14_53
*613 FILLER_14_65
*614 FILLER_14_77
*615 FILLER_14_83
*616 FILLER_14_85
*617 FILLER_14_97
*618 FILLER_15_105
*619 FILLER_15_111
*620 FILLER_15_113
*621 FILLER_15_125
*622 FILLER_15_137
*623 FILLER_15_149
*624 FILLER_15_15
*625 FILLER_15_161
*626 FILLER_15_167
*627 FILLER_15_169
*628 FILLER_15_181
*629 FILLER_15_193
*630 FILLER_15_209
*631 FILLER_15_221
*632 FILLER_15_225
*633 FILLER_15_231
*634 FILLER_15_238
*635 FILLER_15_253
*636 FILLER_15_265
*637 FILLER_15_27
*638 FILLER_15_277
*639 FILLER_15_281
*640 FILLER_15_293
*641 FILLER_15_3
*642 FILLER_15_305
*643 FILLER_15_317
*644 FILLER_15_329
*645 FILLER_15_335
*646 FILLER_15_337
*647 FILLER_15_349
*648 FILLER_15_361
*649 FILLER_15_373
*650 FILLER_15_385
*651 FILLER_15_39
*652 FILLER_15_391
*653 FILLER_15_393
*654 FILLER_15_405
*655 FILLER_15_51
*656 FILLER_15_55
*657 FILLER_15_57
*658 FILLER_15_69
*659 FILLER_15_81
*660 FILLER_15_93
*661 FILLER_16_109
*662 FILLER_16_121
*663 FILLER_16_133
*664 FILLER_16_139
*665 FILLER_16_141
*666 FILLER_16_15
*667 FILLER_16_153
*668 FILLER_16_165
*669 FILLER_16_177
*670 FILLER_16_197
*671 FILLER_16_209
*672 FILLER_16_221
*673 FILLER_16_229
*674 FILLER_16_243
*675 FILLER_16_251
*676 FILLER_16_253
*677 FILLER_16_265
*678 FILLER_16_27
*679 FILLER_16_277
*680 FILLER_16_289
*681 FILLER_16_29
*682 FILLER_16_3
*683 FILLER_16_301
*684 FILLER_16_307
*685 FILLER_16_309
*686 FILLER_16_321
*687 FILLER_16_333
*688 FILLER_16_345
*689 FILLER_16_357
*690 FILLER_16_363
*691 FILLER_16_365
*692 FILLER_16_377
*693 FILLER_16_389
*694 FILLER_16_401
*695 FILLER_16_41
*696 FILLER_16_53
*697 FILLER_16_65
*698 FILLER_16_77
*699 FILLER_16_83
*700 FILLER_16_85
*701 FILLER_16_97
*702 FILLER_17_105
*703 FILLER_17_111
*704 FILLER_17_113
*705 FILLER_17_125
*706 FILLER_17_137
*707 FILLER_17_149
*708 FILLER_17_15
*709 FILLER_17_161
*710 FILLER_17_167
*711 FILLER_17_169
*712 FILLER_17_181
*713 FILLER_17_193
*714 FILLER_17_205
*715 FILLER_17_217
*716 FILLER_17_223
*717 FILLER_17_225
*718 FILLER_17_229
*719 FILLER_17_249
*720 FILLER_17_261
*721 FILLER_17_27
*722 FILLER_17_273
*723 FILLER_17_279
*724 FILLER_17_281
*725 FILLER_17_293
*726 FILLER_17_3
*727 FILLER_17_305
*728 FILLER_17_317
*729 FILLER_17_329
*730 FILLER_17_335
*731 FILLER_17_337
*732 FILLER_17_349
*733 FILLER_17_361
*734 FILLER_17_373
*735 FILLER_17_385
*736 FILLER_17_39
*737 FILLER_17_391
*738 FILLER_17_393
*739 FILLER_17_405
*740 FILLER_17_51
*741 FILLER_17_55
*742 FILLER_17_57
*743 FILLER_17_69
*744 FILLER_17_81
*745 FILLER_17_93
*746 FILLER_18_109
*747 FILLER_18_121
*748 FILLER_18_133
*749 FILLER_18_139
*750 FILLER_18_141
*751 FILLER_18_15
*752 FILLER_18_153
*753 FILLER_18_165
*754 FILLER_18_174
*755 FILLER_18_194
*756 FILLER_18_197
*757 FILLER_18_209
*758 FILLER_18_221
*759 FILLER_18_233
*760 FILLER_18_245
*761 FILLER_18_251
*762 FILLER_18_253
*763 FILLER_18_265
*764 FILLER_18_27
*765 FILLER_18_277
*766 FILLER_18_289
*767 FILLER_18_29
*768 FILLER_18_3
*769 FILLER_18_301
*770 FILLER_18_307
*771 FILLER_18_309
*772 FILLER_18_321
*773 FILLER_18_333
*774 FILLER_18_345
*775 FILLER_18_357
*776 FILLER_18_363
*777 FILLER_18_365
*778 FILLER_18_377
*779 FILLER_18_389
*780 FILLER_18_401
*781 FILLER_18_41
*782 FILLER_18_53
*783 FILLER_18_65
*784 FILLER_18_77
*785 FILLER_18_83
*786 FILLER_18_85
*787 FILLER_18_97
*788 FILLER_19_105
*789 FILLER_19_111
*790 FILLER_19_113
*791 FILLER_19_125
*792 FILLER_19_137
*793 FILLER_19_149
*794 FILLER_19_15
*795 FILLER_19_161
*796 FILLER_19_167
*797 FILLER_19_182
*798 FILLER_19_194
*799 FILLER_19_211
*800 FILLER_19_223
*801 FILLER_19_225
*802 FILLER_19_237
*803 FILLER_19_252
*804 FILLER_19_264
*805 FILLER_19_27
*806 FILLER_19_276
*807 FILLER_19_281
*808 FILLER_19_293
*809 FILLER_19_3
*810 FILLER_19_305
*811 FILLER_19_317
*812 FILLER_19_329
*813 FILLER_19_335
*814 FILLER_19_337
*815 FILLER_19_349
*816 FILLER_19_361
*817 FILLER_19_373
*818 FILLER_19_385
*819 FILLER_19_39
*820 FILLER_19_391
*821 FILLER_19_393
*822 FILLER_19_405
*823 FILLER_19_51
*824 FILLER_19_55
*825 FILLER_19_57
*826 FILLER_19_69
*827 FILLER_19_81
*828 FILLER_19_93
*829 FILLER_1_105
*830 FILLER_1_111
*831 FILLER_1_113
*832 FILLER_1_125
*833 FILLER_1_133
*834 FILLER_1_140
*835 FILLER_1_148
*836 FILLER_1_15
*837 FILLER_1_155
*838 FILLER_1_167
*839 FILLER_1_169
*840 FILLER_1_181
*841 FILLER_1_193
*842 FILLER_1_205
*843 FILLER_1_217
*844 FILLER_1_223
*845 FILLER_1_225
*846 FILLER_1_237
*847 FILLER_1_249
*848 FILLER_1_261
*849 FILLER_1_27
*850 FILLER_1_273
*851 FILLER_1_279
*852 FILLER_1_281
*853 FILLER_1_293
*854 FILLER_1_3
*855 FILLER_1_305
*856 FILLER_1_317
*857 FILLER_1_329
*858 FILLER_1_335
*859 FILLER_1_337
*860 FILLER_1_349
*861 FILLER_1_361
*862 FILLER_1_373
*863 FILLER_1_385
*864 FILLER_1_39
*865 FILLER_1_391
*866 FILLER_1_393
*867 FILLER_1_405
*868 FILLER_1_51
*869 FILLER_1_55
*870 FILLER_1_57
*871 FILLER_1_69
*872 FILLER_1_81
*873 FILLER_1_93
*874 FILLER_20_109
*875 FILLER_20_121
*876 FILLER_20_133
*877 FILLER_20_139
*878 FILLER_20_141
*879 FILLER_20_15
*880 FILLER_20_153
*881 FILLER_20_157
*882 FILLER_20_187
*883 FILLER_20_195
*884 FILLER_20_197
*885 FILLER_20_209
*886 FILLER_20_221
*887 FILLER_20_233
*888 FILLER_20_247
*889 FILLER_20_251
*890 FILLER_20_253
*891 FILLER_20_265
*892 FILLER_20_27
*893 FILLER_20_277
*894 FILLER_20_289
*895 FILLER_20_29
*896 FILLER_20_3
*897 FILLER_20_301
*898 FILLER_20_307
*899 FILLER_20_309
*900 FILLER_20_321
*901 FILLER_20_333
*902 FILLER_20_345
*903 FILLER_20_357
*904 FILLER_20_363
*905 FILLER_20_365
*906 FILLER_20_377
*907 FILLER_20_389
*908 FILLER_20_401
*909 FILLER_20_41
*910 FILLER_20_53
*911 FILLER_20_65
*912 FILLER_20_77
*913 FILLER_20_83
*914 FILLER_20_85
*915 FILLER_20_97
*916 FILLER_21_105
*917 FILLER_21_111
*918 FILLER_21_113
*919 FILLER_21_125
*920 FILLER_21_137
*921 FILLER_21_149
*922 FILLER_21_15
*923 FILLER_21_161
*924 FILLER_21_167
*925 FILLER_21_169
*926 FILLER_21_173
*927 FILLER_21_181
*928 FILLER_21_189
*929 FILLER_21_195
*930 FILLER_21_207
*931 FILLER_21_219
*932 FILLER_21_223
*933 FILLER_21_225
*934 FILLER_21_237
*935 FILLER_21_249
*936 FILLER_21_253
*937 FILLER_21_257
*938 FILLER_21_269
*939 FILLER_21_27
*940 FILLER_21_277
*941 FILLER_21_284
*942 FILLER_21_296
*943 FILLER_21_3
*944 FILLER_21_308
*945 FILLER_21_320
*946 FILLER_21_332
*947 FILLER_21_337
*948 FILLER_21_349
*949 FILLER_21_361
*950 FILLER_21_373
*951 FILLER_21_385
*952 FILLER_21_39
*953 FILLER_21_391
*954 FILLER_21_393
*955 FILLER_21_401
*956 FILLER_21_51
*957 FILLER_21_55
*958 FILLER_21_57
*959 FILLER_21_69
*960 FILLER_21_81
*961 FILLER_21_93
*962 FILLER_22_109
*963 FILLER_22_121
*964 FILLER_22_133
*965 FILLER_22_139
*966 FILLER_22_141
*967 FILLER_22_148
*968 FILLER_22_15
*969 FILLER_22_160
*970 FILLER_22_172
*971 FILLER_22_184
*972 FILLER_22_197
*973 FILLER_22_206
*974 FILLER_22_218
*975 FILLER_22_230
*976 FILLER_22_242
*977 FILLER_22_250
*978 FILLER_22_253
*979 FILLER_22_265
*980 FILLER_22_27
*981 FILLER_22_275
*982 FILLER_22_283
*983 FILLER_22_29
*984 FILLER_22_295
*985 FILLER_22_3
*986 FILLER_22_307
*987 FILLER_22_309
*988 FILLER_22_317
*989 FILLER_22_327
*990 FILLER_22_339
*991 FILLER_22_351
*992 FILLER_22_363
*993 FILLER_22_365
*994 FILLER_22_377
*995 FILLER_22_389
*996 FILLER_22_401
*997 FILLER_22_41
*998 FILLER_22_53
*999 FILLER_22_65
*1000 FILLER_22_77
*1001 FILLER_22_83
*1002 FILLER_22_85
*1003 FILLER_22_97
*1004 FILLER_23_105
*1005 FILLER_23_111
*1006 FILLER_23_113
*1007 FILLER_23_125
*1008 FILLER_23_15
*1009 FILLER_23_159
*1010 FILLER_23_167
*1011 FILLER_23_169
*1012 FILLER_23_181
*1013 FILLER_23_193
*1014 FILLER_23_205
*1015 FILLER_23_217
*1016 FILLER_23_223
*1017 FILLER_23_225
*1018 FILLER_23_248
*1019 FILLER_23_260
*1020 FILLER_23_27
*1021 FILLER_23_272
*1022 FILLER_23_296
*1023 FILLER_23_3
*1024 FILLER_23_308
*1025 FILLER_23_331
*1026 FILLER_23_335
*1027 FILLER_23_337
*1028 FILLER_23_349
*1029 FILLER_23_361
*1030 FILLER_23_373
*1031 FILLER_23_385
*1032 FILLER_23_39
*1033 FILLER_23_391
*1034 FILLER_23_393
*1035 FILLER_23_405
*1036 FILLER_23_51
*1037 FILLER_23_55
*1038 FILLER_23_57
*1039 FILLER_23_69
*1040 FILLER_23_81
*1041 FILLER_23_93
*1042 FILLER_24_109
*1043 FILLER_24_121
*1044 FILLER_24_133
*1045 FILLER_24_139
*1046 FILLER_24_141
*1047 FILLER_24_15
*1048 FILLER_24_152
*1049 FILLER_24_164
*1050 FILLER_24_176
*1051 FILLER_24_188
*1052 FILLER_24_197
*1053 FILLER_24_208
*1054 FILLER_24_220
*1055 FILLER_24_232
*1056 FILLER_24_240
*1057 FILLER_24_256
*1058 FILLER_24_268
*1059 FILLER_24_27
*1060 FILLER_24_280
*1061 FILLER_24_29
*1062 FILLER_24_292
*1063 FILLER_24_3
*1064 FILLER_24_304
*1065 FILLER_24_309
*1066 FILLER_24_313
*1067 FILLER_24_320
*1068 FILLER_24_324
*1069 FILLER_24_338
*1070 FILLER_24_350
*1071 FILLER_24_362
*1072 FILLER_24_365
*1073 FILLER_24_377
*1074 FILLER_24_389
*1075 FILLER_24_401
*1076 FILLER_24_41
*1077 FILLER_24_53
*1078 FILLER_24_65
*1079 FILLER_24_77
*1080 FILLER_24_83
*1081 FILLER_24_85
*1082 FILLER_24_97
*1083 FILLER_25_105
*1084 FILLER_25_111
*1085 FILLER_25_113
*1086 FILLER_25_125
*1087 FILLER_25_137
*1088 FILLER_25_149
*1089 FILLER_25_15
*1090 FILLER_25_161
*1091 FILLER_25_167
*1092 FILLER_25_169
*1093 FILLER_25_181
*1094 FILLER_25_193
*1095 FILLER_25_205
*1096 FILLER_25_217
*1097 FILLER_25_223
*1098 FILLER_25_225
*1099 FILLER_25_237
*1100 FILLER_25_249
*1101 FILLER_25_258
*1102 FILLER_25_27
*1103 FILLER_25_270
*1104 FILLER_25_278
*1105 FILLER_25_281
*1106 FILLER_25_293
*1107 FILLER_25_3
*1108 FILLER_25_305
*1109 FILLER_25_317
*1110 FILLER_25_329
*1111 FILLER_25_335
*1112 FILLER_25_337
*1113 FILLER_25_349
*1114 FILLER_25_361
*1115 FILLER_25_373
*1116 FILLER_25_385
*1117 FILLER_25_39
*1118 FILLER_25_391
*1119 FILLER_25_393
*1120 FILLER_25_397
*1121 FILLER_25_51
*1122 FILLER_25_55
*1123 FILLER_25_57
*1124 FILLER_25_69
*1125 FILLER_25_81
*1126 FILLER_25_93
*1127 FILLER_26_109
*1128 FILLER_26_132
*1129 FILLER_26_15
*1130 FILLER_26_150
*1131 FILLER_26_158
*1132 FILLER_26_170
*1133 FILLER_26_182
*1134 FILLER_26_193
*1135 FILLER_26_197
*1136 FILLER_26_209
*1137 FILLER_26_221
*1138 FILLER_26_233
*1139 FILLER_26_245
*1140 FILLER_26_251
*1141 FILLER_26_260
*1142 FILLER_26_27
*1143 FILLER_26_272
*1144 FILLER_26_284
*1145 FILLER_26_29
*1146 FILLER_26_296
*1147 FILLER_26_3
*1148 FILLER_26_309
*1149 FILLER_26_321
*1150 FILLER_26_333
*1151 FILLER_26_345
*1152 FILLER_26_357
*1153 FILLER_26_363
*1154 FILLER_26_365
*1155 FILLER_26_377
*1156 FILLER_26_389
*1157 FILLER_26_401
*1158 FILLER_26_41
*1159 FILLER_26_53
*1160 FILLER_26_65
*1161 FILLER_26_77
*1162 FILLER_26_83
*1163 FILLER_26_85
*1164 FILLER_26_97
*1165 FILLER_27_105
*1166 FILLER_27_113
*1167 FILLER_27_139
*1168 FILLER_27_15
*1169 FILLER_27_151
*1170 FILLER_27_163
*1171 FILLER_27_167
*1172 FILLER_27_169
*1173 FILLER_27_177
*1174 FILLER_27_204
*1175 FILLER_27_216
*1176 FILLER_27_225
*1177 FILLER_27_237
*1178 FILLER_27_241
*1179 FILLER_27_255
*1180 FILLER_27_267
*1181 FILLER_27_27
*1182 FILLER_27_279
*1183 FILLER_27_281
*1184 FILLER_27_293
*1185 FILLER_27_3
*1186 FILLER_27_305
*1187 FILLER_27_317
*1188 FILLER_27_329
*1189 FILLER_27_335
*1190 FILLER_27_337
*1191 FILLER_27_349
*1192 FILLER_27_361
*1193 FILLER_27_373
*1194 FILLER_27_385
*1195 FILLER_27_39
*1196 FILLER_27_391
*1197 FILLER_27_393
*1198 FILLER_27_405
*1199 FILLER_27_51
*1200 FILLER_27_55
*1201 FILLER_27_57
*1202 FILLER_27_69
*1203 FILLER_27_81
*1204 FILLER_27_93
*1205 FILLER_28_116
*1206 FILLER_28_122
*1207 FILLER_28_128
*1208 FILLER_28_141
*1209 FILLER_28_15
*1210 FILLER_28_153
*1211 FILLER_28_165
*1212 FILLER_28_177
*1213 FILLER_28_181
*1214 FILLER_28_210
*1215 FILLER_28_222
*1216 FILLER_28_234
*1217 FILLER_28_246
*1218 FILLER_28_253
*1219 FILLER_28_265
*1220 FILLER_28_27
*1221 FILLER_28_277
*1222 FILLER_28_289
*1223 FILLER_28_29
*1224 FILLER_28_3
*1225 FILLER_28_301
*1226 FILLER_28_307
*1227 FILLER_28_309
*1228 FILLER_28_315
*1229 FILLER_28_323
*1230 FILLER_28_335
*1231 FILLER_28_347
*1232 FILLER_28_359
*1233 FILLER_28_363
*1234 FILLER_28_365
*1235 FILLER_28_377
*1236 FILLER_28_389
*1237 FILLER_28_401
*1238 FILLER_28_41
*1239 FILLER_28_53
*1240 FILLER_28_65
*1241 FILLER_28_77
*1242 FILLER_28_83
*1243 FILLER_28_85
*1244 FILLER_28_97
*1245 FILLER_29_105
*1246 FILLER_29_111
*1247 FILLER_29_123
*1248 FILLER_29_135
*1249 FILLER_29_147
*1250 FILLER_29_15
*1251 FILLER_29_159
*1252 FILLER_29_167
*1253 FILLER_29_169
*1254 FILLER_29_181
*1255 FILLER_29_189
*1256 FILLER_29_201
*1257 FILLER_29_213
*1258 FILLER_29_221
*1259 FILLER_29_225
*1260 FILLER_29_237
*1261 FILLER_29_249
*1262 FILLER_29_261
*1263 FILLER_29_27
*1264 FILLER_29_273
*1265 FILLER_29_279
*1266 FILLER_29_281
*1267 FILLER_29_293
*1268 FILLER_29_3
*1269 FILLER_29_304
*1270 FILLER_29_313
*1271 FILLER_29_325
*1272 FILLER_29_333
*1273 FILLER_29_337
*1274 FILLER_29_349
*1275 FILLER_29_361
*1276 FILLER_29_373
*1277 FILLER_29_385
*1278 FILLER_29_39
*1279 FILLER_29_391
*1280 FILLER_29_393
*1281 FILLER_29_51
*1282 FILLER_29_55
*1283 FILLER_29_57
*1284 FILLER_29_69
*1285 FILLER_29_81
*1286 FILLER_29_93
*1287 FILLER_2_109
*1288 FILLER_2_121
*1289 FILLER_2_133
*1290 FILLER_2_139
*1291 FILLER_2_141
*1292 FILLER_2_147
*1293 FILLER_2_15
*1294 FILLER_2_162
*1295 FILLER_2_174
*1296 FILLER_2_191
*1297 FILLER_2_195
*1298 FILLER_2_197
*1299 FILLER_2_209
*1300 FILLER_2_221
*1301 FILLER_2_233
*1302 FILLER_2_245
*1303 FILLER_2_251
*1304 FILLER_2_253
*1305 FILLER_2_265
*1306 FILLER_2_27
*1307 FILLER_2_277
*1308 FILLER_2_289
*1309 FILLER_2_29
*1310 FILLER_2_3
*1311 FILLER_2_301
*1312 FILLER_2_307
*1313 FILLER_2_309
*1314 FILLER_2_321
*1315 FILLER_2_333
*1316 FILLER_2_345
*1317 FILLER_2_357
*1318 FILLER_2_363
*1319 FILLER_2_365
*1320 FILLER_2_377
*1321 FILLER_2_389
*1322 FILLER_2_401
*1323 FILLER_2_41
*1324 FILLER_2_53
*1325 FILLER_2_65
*1326 FILLER_2_77
*1327 FILLER_2_83
*1328 FILLER_2_85
*1329 FILLER_2_97
*1330 FILLER_30_109
*1331 FILLER_30_121
*1332 FILLER_30_133
*1333 FILLER_30_139
*1334 FILLER_30_141
*1335 FILLER_30_15
*1336 FILLER_30_153
*1337 FILLER_30_165
*1338 FILLER_30_177
*1339 FILLER_30_189
*1340 FILLER_30_197
*1341 FILLER_30_207
*1342 FILLER_30_211
*1343 FILLER_30_215
*1344 FILLER_30_227
*1345 FILLER_30_239
*1346 FILLER_30_250
*1347 FILLER_30_253
*1348 FILLER_30_265
*1349 FILLER_30_27
*1350 FILLER_30_277
*1351 FILLER_30_286
*1352 FILLER_30_29
*1353 FILLER_30_298
*1354 FILLER_30_3
*1355 FILLER_30_306
*1356 FILLER_30_309
*1357 FILLER_30_321
*1358 FILLER_30_333
*1359 FILLER_30_345
*1360 FILLER_30_357
*1361 FILLER_30_363
*1362 FILLER_30_365
*1363 FILLER_30_377
*1364 FILLER_30_389
*1365 FILLER_30_401
*1366 FILLER_30_41
*1367 FILLER_30_53
*1368 FILLER_30_65
*1369 FILLER_30_77
*1370 FILLER_30_83
*1371 FILLER_30_85
*1372 FILLER_30_97
*1373 FILLER_31_105
*1374 FILLER_31_111
*1375 FILLER_31_113
*1376 FILLER_31_121
*1377 FILLER_31_130
*1378 FILLER_31_142
*1379 FILLER_31_15
*1380 FILLER_31_154
*1381 FILLER_31_166
*1382 FILLER_31_169
*1383 FILLER_31_177
*1384 FILLER_31_187
*1385 FILLER_31_199
*1386 FILLER_31_211
*1387 FILLER_31_223
*1388 FILLER_31_225
*1389 FILLER_31_237
*1390 FILLER_31_249
*1391 FILLER_31_261
*1392 FILLER_31_27
*1393 FILLER_31_288
*1394 FILLER_31_3
*1395 FILLER_31_300
*1396 FILLER_31_312
*1397 FILLER_31_324
*1398 FILLER_31_337
*1399 FILLER_31_349
*1400 FILLER_31_361
*1401 FILLER_31_373
*1402 FILLER_31_385
*1403 FILLER_31_39
*1404 FILLER_31_391
*1405 FILLER_31_393
*1406 FILLER_31_405
*1407 FILLER_31_51
*1408 FILLER_31_55
*1409 FILLER_31_57
*1410 FILLER_31_69
*1411 FILLER_31_81
*1412 FILLER_31_93
*1413 FILLER_32_118
*1414 FILLER_32_130
*1415 FILLER_32_138
*1416 FILLER_32_141
*1417 FILLER_32_15
*1418 FILLER_32_150
*1419 FILLER_32_162
*1420 FILLER_32_174
*1421 FILLER_32_186
*1422 FILLER_32_194
*1423 FILLER_32_197
*1424 FILLER_32_205
*1425 FILLER_32_209
*1426 FILLER_32_221
*1427 FILLER_32_230
*1428 FILLER_32_240
*1429 FILLER_32_253
*1430 FILLER_32_265
*1431 FILLER_32_27
*1432 FILLER_32_278
*1433 FILLER_32_29
*1434 FILLER_32_290
*1435 FILLER_32_3
*1436 FILLER_32_302
*1437 FILLER_32_309
*1438 FILLER_32_321
*1439 FILLER_32_333
*1440 FILLER_32_345
*1441 FILLER_32_357
*1442 FILLER_32_363
*1443 FILLER_32_365
*1444 FILLER_32_377
*1445 FILLER_32_389
*1446 FILLER_32_401
*1447 FILLER_32_41
*1448 FILLER_32_53
*1449 FILLER_32_65
*1450 FILLER_32_77
*1451 FILLER_32_83
*1452 FILLER_32_85
*1453 FILLER_33_107
*1454 FILLER_33_111
*1455 FILLER_33_113
*1456 FILLER_33_125
*1457 FILLER_33_137
*1458 FILLER_33_149
*1459 FILLER_33_15
*1460 FILLER_33_161
*1461 FILLER_33_167
*1462 FILLER_33_169
*1463 FILLER_33_181
*1464 FILLER_33_193
*1465 FILLER_33_205
*1466 FILLER_33_217
*1467 FILLER_33_223
*1468 FILLER_33_233
*1469 FILLER_33_241
*1470 FILLER_33_252
*1471 FILLER_33_264
*1472 FILLER_33_27
*1473 FILLER_33_276
*1474 FILLER_33_281
*1475 FILLER_33_293
*1476 FILLER_33_3
*1477 FILLER_33_305
*1478 FILLER_33_317
*1479 FILLER_33_329
*1480 FILLER_33_335
*1481 FILLER_33_337
*1482 FILLER_33_349
*1483 FILLER_33_361
*1484 FILLER_33_373
*1485 FILLER_33_385
*1486 FILLER_33_39
*1487 FILLER_33_391
*1488 FILLER_33_393
*1489 FILLER_33_405
*1490 FILLER_33_51
*1491 FILLER_33_55
*1492 FILLER_33_57
*1493 FILLER_33_69
*1494 FILLER_33_81
*1495 FILLER_34_109
*1496 FILLER_34_121
*1497 FILLER_34_133
*1498 FILLER_34_139
*1499 FILLER_34_147
*1500 FILLER_34_15
*1501 FILLER_34_159
*1502 FILLER_34_171
*1503 FILLER_34_185
*1504 FILLER_34_192
*1505 FILLER_34_197
*1506 FILLER_34_209
*1507 FILLER_34_221
*1508 FILLER_34_233
*1509 FILLER_34_245
*1510 FILLER_34_251
*1511 FILLER_34_253
*1512 FILLER_34_265
*1513 FILLER_34_27
*1514 FILLER_34_277
*1515 FILLER_34_29
*1516 FILLER_34_3
*1517 FILLER_34_300
*1518 FILLER_34_309
*1519 FILLER_34_321
*1520 FILLER_34_333
*1521 FILLER_34_345
*1522 FILLER_34_357
*1523 FILLER_34_363
*1524 FILLER_34_365
*1525 FILLER_34_377
*1526 FILLER_34_389
*1527 FILLER_34_401
*1528 FILLER_34_41
*1529 FILLER_34_53
*1530 FILLER_34_65
*1531 FILLER_34_77
*1532 FILLER_34_83
*1533 FILLER_34_85
*1534 FILLER_34_97
*1535 FILLER_35_105
*1536 FILLER_35_111
*1537 FILLER_35_113
*1538 FILLER_35_125
*1539 FILLER_35_137
*1540 FILLER_35_145
*1541 FILLER_35_149
*1542 FILLER_35_15
*1543 FILLER_35_161
*1544 FILLER_35_167
*1545 FILLER_35_169
*1546 FILLER_35_191
*1547 FILLER_35_203
*1548 FILLER_35_215
*1549 FILLER_35_223
*1550 FILLER_35_225
*1551 FILLER_35_237
*1552 FILLER_35_249
*1553 FILLER_35_256
*1554 FILLER_35_268
*1555 FILLER_35_27
*1556 FILLER_35_281
*1557 FILLER_35_293
*1558 FILLER_35_3
*1559 FILLER_35_301
*1560 FILLER_35_313
*1561 FILLER_35_325
*1562 FILLER_35_333
*1563 FILLER_35_337
*1564 FILLER_35_349
*1565 FILLER_35_361
*1566 FILLER_35_373
*1567 FILLER_35_385
*1568 FILLER_35_39
*1569 FILLER_35_391
*1570 FILLER_35_393
*1571 FILLER_35_405
*1572 FILLER_35_51
*1573 FILLER_35_55
*1574 FILLER_35_57
*1575 FILLER_35_69
*1576 FILLER_35_81
*1577 FILLER_35_93
*1578 FILLER_36_102
*1579 FILLER_36_114
*1580 FILLER_36_126
*1581 FILLER_36_139
*1582 FILLER_36_146
*1583 FILLER_36_15
*1584 FILLER_36_159
*1585 FILLER_36_167
*1586 FILLER_36_180
*1587 FILLER_36_192
*1588 FILLER_36_197
*1589 FILLER_36_209
*1590 FILLER_36_221
*1591 FILLER_36_233
*1592 FILLER_36_245
*1593 FILLER_36_251
*1594 FILLER_36_253
*1595 FILLER_36_265
*1596 FILLER_36_27
*1597 FILLER_36_277
*1598 FILLER_36_289
*1599 FILLER_36_29
*1600 FILLER_36_3
*1601 FILLER_36_301
*1602 FILLER_36_307
*1603 FILLER_36_309
*1604 FILLER_36_319
*1605 FILLER_36_331
*1606 FILLER_36_343
*1607 FILLER_36_355
*1608 FILLER_36_363
*1609 FILLER_36_365
*1610 FILLER_36_377
*1611 FILLER_36_389
*1612 FILLER_36_41
*1613 FILLER_36_53
*1614 FILLER_36_65
*1615 FILLER_36_73
*1616 FILLER_36_85
*1617 FILLER_36_91
*1618 FILLER_37_107
*1619 FILLER_37_111
*1620 FILLER_37_113
*1621 FILLER_37_125
*1622 FILLER_37_137
*1623 FILLER_37_148
*1624 FILLER_37_15
*1625 FILLER_37_160
*1626 FILLER_37_169
*1627 FILLER_37_181
*1628 FILLER_37_187
*1629 FILLER_37_191
*1630 FILLER_37_201
*1631 FILLER_37_213
*1632 FILLER_37_221
*1633 FILLER_37_225
*1634 FILLER_37_237
*1635 FILLER_37_249
*1636 FILLER_37_261
*1637 FILLER_37_27
*1638 FILLER_37_273
*1639 FILLER_37_279
*1640 FILLER_37_281
*1641 FILLER_37_293
*1642 FILLER_37_3
*1643 FILLER_37_307
*1644 FILLER_37_319
*1645 FILLER_37_331
*1646 FILLER_37_335
*1647 FILLER_37_337
*1648 FILLER_37_349
*1649 FILLER_37_361
*1650 FILLER_37_373
*1651 FILLER_37_385
*1652 FILLER_37_39
*1653 FILLER_37_391
*1654 FILLER_37_393
*1655 FILLER_37_397
*1656 FILLER_37_51
*1657 FILLER_37_55
*1658 FILLER_37_57
*1659 FILLER_37_69
*1660 FILLER_37_95
*1661 FILLER_38_102
*1662 FILLER_38_114
*1663 FILLER_38_126
*1664 FILLER_38_138
*1665 FILLER_38_141
*1666 FILLER_38_15
*1667 FILLER_38_152
*1668 FILLER_38_164
*1669 FILLER_38_176
*1670 FILLER_38_188
*1671 FILLER_38_197
*1672 FILLER_38_205
*1673 FILLER_38_217
*1674 FILLER_38_229
*1675 FILLER_38_241
*1676 FILLER_38_249
*1677 FILLER_38_253
*1678 FILLER_38_266
*1679 FILLER_38_27
*1680 FILLER_38_278
*1681 FILLER_38_29
*1682 FILLER_38_290
*1683 FILLER_38_296
*1684 FILLER_38_3
*1685 FILLER_38_316
*1686 FILLER_38_328
*1687 FILLER_38_340
*1688 FILLER_38_352
*1689 FILLER_38_365
*1690 FILLER_38_377
*1691 FILLER_38_389
*1692 FILLER_38_401
*1693 FILLER_38_41
*1694 FILLER_38_53
*1695 FILLER_38_65
*1696 FILLER_38_77
*1697 FILLER_38_83
*1698 FILLER_38_91
*1699 FILLER_39_109
*1700 FILLER_39_117
*1701 FILLER_39_129
*1702 FILLER_39_141
*1703 FILLER_39_15
*1704 FILLER_39_153
*1705 FILLER_39_165
*1706 FILLER_39_169
*1707 FILLER_39_181
*1708 FILLER_39_190
*1709 FILLER_39_202
*1710 FILLER_39_214
*1711 FILLER_39_218
*1712 FILLER_39_232