*SPEF "ieee 1481-1999"
*DESIGN "mult8_2bits_1op_e16917"
*DATE "14:41:51 Tuesday September 16, 2025"
*VENDOR "The OpenROAD Project"
*PROGRAM "OpenROAD"
*VERSION "edf00dff99f6c40d67a30c0e22a8191c5d2ed9d6"
*DESIGN_FLOW "NAME_SCOPE LOCAL" "PIN_CAP NONE"
*DIVIDER /
*DELIMITER :
*BUS_DELIMITER []
*T_UNIT 1 NS
*C_UNIT 1 PF
*R_UNIT 1 OHM
*L_UNIT 1 HENRY

*NAME_MAP
*1 A[0]
*2 A[1]
*3 A[2]
*4 A[3]
*5 A[4]
*6 A[5]
*7 A[6]
*8 A[7]
*9 B[0]
*10 B[1]
*11 B[2]
*12 B[3]
*13 B[4]
*14 B[5]
*15 B[6]
*16 B[7]
*17 P[0]
*18 P[10]
*19 P[11]
*20 P[12]
*21 P[13]
*22 P[14]
*23 P[15]
*24 P[1]
*25 P[2]
*26 P[3]
*27 P[4]
*28 P[5]
*29 P[6]
*30 P[7]
*31 P[8]
*32 P[9]
*35 _000_
*36 _001_
*37 _002_
*38 _003_
*39 _004_
*40 _005_
*41 _006_
*42 _007_
*43 _008_
*44 _009_
*45 _010_
*46 _011_
*47 _012_
*48 _013_
*49 _014_
*50 _015_
*51 _016_
*52 _017_
*53 _018_
*54 _019_
*55 _020_
*56 _021_
*57 _022_
*58 _023_
*59 _024_
*60 _025_
*61 _026_
*62 _027_
*63 _028_
*64 _029_
*65 _030_
*66 _031_
*67 _032_
*68 _033_
*69 _034_
*70 _035_
*71 _036_
*72 _037_
*73 _038_
*74 _039_
*75 _040_
*76 _041_
*77 _042_
*78 _043_
*79 _044_
*80 _045_
*81 _046_
*82 _047_
*83 _048_
*84 _049_
*85 _050_
*86 _051_
*87 _052_
*88 _053_
*89 _054_
*90 _055_
*91 _056_
*92 _057_
*93 _058_
*94 _059_
*95 _060_
*96 _061_
*97 _062_
*98 _063_
*99 _064_
*100 _065_
*101 _066_
*102 _067_
*103 _068_
*104 _069_
*105 _070_
*106 _071_
*107 _072_
*108 _073_
*109 _074_
*110 _075_
*111 _076_
*112 _077_
*113 _078_
*114 _079_
*115 _080_
*116 _081_
*117 _082_
*118 _083_
*119 _084_
*120 _085_
*121 _086_
*122 _087_
*123 _088_
*124 _089_
*125 _090_
*126 _091_
*127 _092_
*128 _093_
*129 _094_
*130 _095_
*131 _096_
*132 _097_
*133 _098_
*134 _099_
*135 _100_
*136 _101_
*137 _102_
*138 _103_
*139 _104_
*140 _105_
*141 _106_
*142 _107_
*143 _108_
*144 _109_
*145 _110_
*146 _111_
*147 _112_
*148 _113_
*149 _114_
*150 _115_
*151 _116_
*152 _117_
*153 _118_
*154 _119_
*155 _120_
*156 _121_
*157 _122_
*158 _123_
*159 _124_
*160 _125_
*161 _126_
*162 _127_
*163 _128_
*164 _129_
*165 _130_
*166 _131_
*167 _132_
*168 _133_
*169 _134_
*170 _135_
*171 _136_
*172 _137_
*173 _138_
*174 _139_
*175 _140_
*176 _141_
*177 _142_
*178 _143_
*179 _144_
*180 _145_
*181 _146_
*182 _147_
*183 _148_
*184 _149_
*185 _150_
*186 _151_
*187 _152_
*188 _153_
*189 _154_
*190 _155_
*191 _156_
*192 _157_
*193 _158_
*194 _159_
*195 _160_
*196 _161_
*197 _162_
*198 _163_
*199 _164_
*200 _165_
*201 _166_
*202 _167_
*203 _168_
*204 _169_
*205 _170_
*206 _171_
*207 _172_
*208 _173_
*209 _174_
*210 _175_
*211 _176_
*212 _177_
*213 _178_
*214 _179_
*215 _180_
*216 _181_
*217 _182_
*218 _183_
*219 _184_
*220 _185_
*221 _186_
*222 _187_
*223 _188_
*224 _189_
*225 _190_
*226 _191_
*227 _192_
*228 _193_
*229 _194_
*230 _195_
*231 _196_
*232 _197_
*233 _198_
*234 _199_
*235 _200_
*236 _201_
*237 _202_
*238 _203_
*239 _204_
*240 _205_
*241 _206_
*242 _207_
*243 _208_
*244 _209_
*245 _210_
*246 _211_
*247 _212_
*248 _213_
*249 _214_
*250 _215_
*251 _216_
*252 _217_
*253 _218_
*254 _219_
*255 _220_
*256 _221_
*257 _222_
*258 _223_
*259 _224_
*260 _225_
*261 _226_
*262 _227_
*263 _228_
*264 _229_
*265 _230_
*266 _231_
*267 _232_
*268 mul_ll\.mul_ll\.pp1
*269 mul_ll\.mul_ll\.pp2
*270 net1
*271 net10
*272 net11
*273 net12
*274 net13
*275 net14
*276 net15
*277 net16
*278 net17
*279 net18
*280 net19
*281 net2
*282 net20
*283 net21
*284 net22
*285 net23
*286 net24
*287 net25
*288 net26
*289 net27
*290 net28
*291 net29
*292 net3
*293 net30
*294 net31
*295 net32
*296 net33
*297 net34
*298 net35
*299 net36
*300 net37
*301 net38
*302 net39
*303 net4
*304 net40
*305 net41
*306 net42
*307 net43
*308 net44
*309 net45
*310 net46
*311 net47
*312 net48
*313 net49
*314 net5
*315 net50
*316 net51
*317 net52
*318 net53
*319 net54
*320 net55
*321 net56
*322 net57
*323 net58
*324 net59
*325 net6
*326 net60
*327 net61
*328 net62
*329 net63
*330 net64
*331 net65
*332 net66
*333 net67
*334 net7
*335 net72
*336 net73
*337 net74
*338 net75
*339 net8
*340 net9
*341 FILLER_0_109
*342 FILLER_0_113
*343 FILLER_0_121
*344 FILLER_0_126
*345 FILLER_0_133
*346 FILLER_0_139
*347 FILLER_0_145
*348 FILLER_0_15
*349 FILLER_0_155
*350 FILLER_0_167
*351 FILLER_0_169
*352 FILLER_0_181
*353 FILLER_0_189
*354 FILLER_0_197
*355 FILLER_0_202
*356 FILLER_0_212
*357 FILLER_0_225
*358 FILLER_0_237
*359 FILLER_0_249
*360 FILLER_0_253
*361 FILLER_0_261
*362 FILLER_0_266
*363 FILLER_0_27
*364 FILLER_0_278
*365 FILLER_0_281
*366 FILLER_0_29
*367 FILLER_0_293
*368 FILLER_0_3
*369 FILLER_0_301
*370 FILLER_0_309
*371 FILLER_0_321
*372 FILLER_0_333
*373 FILLER_0_337
*374 FILLER_0_349
*375 FILLER_0_361
*376 FILLER_0_365
*377 FILLER_0_377
*378 FILLER_0_389
*379 FILLER_0_393
*380 FILLER_0_405
*381 FILLER_0_41
*382 FILLER_0_53
*383 FILLER_0_57
*384 FILLER_0_69
*385 FILLER_0_81
*386 FILLER_0_85
*387 FILLER_0_97
*388 FILLER_10_109
*389 FILLER_10_121
*390 FILLER_10_133
*391 FILLER_10_139
*392 FILLER_10_141
*393 FILLER_10_15
*394 FILLER_10_153
*395 FILLER_10_165
*396 FILLER_10_177
*397 FILLER_10_189
*398 FILLER_10_195
*399 FILLER_10_197
*400 FILLER_10_209
*401 FILLER_10_233
*402 FILLER_10_240
*403 FILLER_10_253
*404 FILLER_10_264
*405 FILLER_10_27
*406 FILLER_10_276
*407 FILLER_10_29
*408 FILLER_10_291
*409 FILLER_10_3
*410 FILLER_10_303
*411 FILLER_10_307
*412 FILLER_10_309
*413 FILLER_10_321
*414 FILLER_10_333
*415 FILLER_10_345
*416 FILLER_10_357
*417 FILLER_10_363
*418 FILLER_10_365
*419 FILLER_10_377
*420 FILLER_10_389
*421 FILLER_10_401
*422 FILLER_10_41
*423 FILLER_10_53
*424 FILLER_10_65
*425 FILLER_10_77
*426 FILLER_10_83
*427 FILLER_10_85
*428 FILLER_10_97
*429 FILLER_11_105
*430 FILLER_11_111
*431 FILLER_11_113
*432 FILLER_11_125
*433 FILLER_11_137
*434 FILLER_11_149
*435 FILLER_11_15
*436 FILLER_11_161
*437 FILLER_11_167
*438 FILLER_11_169
*439 FILLER_11_181
*440 FILLER_11_193
*441 FILLER_11_205
*442 FILLER_11_217
*443 FILLER_11_223
*444 FILLER_11_225
*445 FILLER_11_233
*446 FILLER_11_242
*447 FILLER_11_249
*448 FILLER_11_261
*449 FILLER_11_265
*450 FILLER_11_27
*451 FILLER_11_297
*452 FILLER_11_3
*453 FILLER_11_305
*454 FILLER_11_313
*455 FILLER_11_325
*456 FILLER_11_333
*457 FILLER_11_337
*458 FILLER_11_349
*459 FILLER_11_361
*460 FILLER_11_373
*461 FILLER_11_385
*462 FILLER_11_39
*463 FILLER_11_391
*464 FILLER_11_393
*465 FILLER_11_405
*466 FILLER_11_51
*467 FILLER_11_55
*468 FILLER_11_57
*469 FILLER_11_69
*470 FILLER_11_81
*471 FILLER_11_93
*472 FILLER_12_109
*473 FILLER_12_121
*474 FILLER_12_133
*475 FILLER_12_139
*476 FILLER_12_141
*477 FILLER_12_15
*478 FILLER_12_153
*479 FILLER_12_165
*480 FILLER_12_177
*481 FILLER_12_189
*482 FILLER_12_195
*483 FILLER_12_197
*484 FILLER_12_209
*485 FILLER_12_221
*486 FILLER_12_233
*487 FILLER_12_242
*488 FILLER_12_250
*489 FILLER_12_253
*490 FILLER_12_265
*491 FILLER_12_27
*492 FILLER_12_284
*493 FILLER_12_29
*494 FILLER_12_296
*495 FILLER_12_3
*496 FILLER_12_309
*497 FILLER_12_321
*498 FILLER_12_333
*499 FILLER_12_345
*500 FILLER_12_357
*501 FILLER_12_363
*502 FILLER_12_365
*503 FILLER_12_377
*504 FILLER_12_389
*505 FILLER_12_401
*506 FILLER_12_41
*507 FILLER_12_53
*508 FILLER_12_65
*509 FILLER_12_77
*510 FILLER_12_83
*511 FILLER_12_85
*512 FILLER_12_97
*513 FILLER_13_105
*514 FILLER_13_111
*515 FILLER_13_113
*516 FILLER_13_125
*517 FILLER_13_137
*518 FILLER_13_149
*519 FILLER_13_15
*520 FILLER_13_161
*521 FILLER_13_167
*522 FILLER_13_169
*523 FILLER_13_181
*524 FILLER_13_193
*525 FILLER_13_205
*526 FILLER_13_217
*527 FILLER_13_223
*528 FILLER_13_225
*529 FILLER_13_237
*530 FILLER_13_249
*531 FILLER_13_261
*532 FILLER_13_27
*533 FILLER_13_273
*534 FILLER_13_279
*535 FILLER_13_281
*536 FILLER_13_293
*537 FILLER_13_3
*538 FILLER_13_305
*539 FILLER_13_317
*540 FILLER_13_329
*541 FILLER_13_335
*542 FILLER_13_337
*543 FILLER_13_349
*544 FILLER_13_361
*545 FILLER_13_373
*546 FILLER_13_385
*547 FILLER_13_39
*548 FILLER_13_391
*549 FILLER_13_393
*550 FILLER_13_405
*551 FILLER_13_51
*552 FILLER_13_55
*553 FILLER_13_57
*554 FILLER_13_69
*555 FILLER_13_81
*556 FILLER_13_93
*557 FILLER_14_109
*558 FILLER_14_121
*559 FILLER_14_133
*560 FILLER_14_139
*561 FILLER_14_141
*562 FILLER_14_15
*563 FILLER_14_153
*564 FILLER_14_165
*565 FILLER_14_177
*566 FILLER_14_189
*567 FILLER_14_195
*568 FILLER_14_197
*569 FILLER_14_209
*570 FILLER_14_221
*571 FILLER_14_233
*572 FILLER_14_245
*573 FILLER_14_251
*574 FILLER_14_253
*575 FILLER_14_265
*576 FILLER_14_27
*577 FILLER_14_277
*578 FILLER_14_289
*579 FILLER_14_29
*580 FILLER_14_3
*581 FILLER_14_301
*582 FILLER_14_307
*583 FILLER_14_309
*584 FILLER_14_321
*585 FILLER_14_333
*586 FILLER_14_345
*587 FILLER_14_357
*588 FILLER_14_363
*589 FILLER_14_365
*590 FILLER_14_377
*591 FILLER_14_386
*592 FILLER_14_393
*593 FILLER_14_405
*594 FILLER_14_41
*595 FILLER_14_53
*596 FILLER_14_65
*597 FILLER_14_77
*598 FILLER_14_83
*599 FILLER_14_85
*600 FILLER_14_97
*601 FILLER_15_105
*602 FILLER_15_111
*603 FILLER_15_113
*604 FILLER_15_125
*605 FILLER_15_137
*606 FILLER_15_149
*607 FILLER_15_15
*608 FILLER_15_161
*609 FILLER_15_167
*610 FILLER_15_169
*611 FILLER_15_181
*612 FILLER_15_193
*613 FILLER_15_205
*614 FILLER_15_217
*615 FILLER_15_223
*616 FILLER_15_225
*617 FILLER_15_255
*618 FILLER_15_267
*619 FILLER_15_27
*620 FILLER_15_279
*621 FILLER_15_281
*622 FILLER_15_293
*623 FILLER_15_3
*624 FILLER_15_305
*625 FILLER_15_317
*626 FILLER_15_329
*627 FILLER_15_335
*628 FILLER_15_337
*629 FILLER_15_349
*630 FILLER_15_361
*631 FILLER_15_373
*632 FILLER_15_385
*633 FILLER_15_39
*634 FILLER_15_391
*635 FILLER_15_393
*636 FILLER_15_401
*637 FILLER_15_51
*638 FILLER_15_55
*639 FILLER_15_57
*640 FILLER_15_69
*641 FILLER_15_81
*642 FILLER_15_93
*643 FILLER_16_109
*644 FILLER_16_121
*645 FILLER_16_133
*646 FILLER_16_139
*647 FILLER_16_141
*648 FILLER_16_15
*649 FILLER_16_153
*650 FILLER_16_165
*651 FILLER_16_177
*652 FILLER_16_189
*653 FILLER_16_195
*654 FILLER_16_197
*655 FILLER_16_209
*656 FILLER_16_221
*657 FILLER_16_233
*658 FILLER_16_265
*659 FILLER_16_27
*660 FILLER_16_273
*661 FILLER_16_283
*662 FILLER_16_287
*663 FILLER_16_29
*664 FILLER_16_3
*665 FILLER_16_301
*666 FILLER_16_307
*667 FILLER_16_309
*668 FILLER_16_321
*669 FILLER_16_333
*670 FILLER_16_345
*671 FILLER_16_357
*672 FILLER_16_363
*673 FILLER_16_365
*674 FILLER_16_377
*675 FILLER_16_389
*676 FILLER_16_41
*677 FILLER_16_53
*678 FILLER_16_65
*679 FILLER_16_77
*680 FILLER_16_83
*681 FILLER_16_85
*682 FILLER_16_97
*683 FILLER_17_105
*684 FILLER_17_111
*685 FILLER_17_113
*686 FILLER_17_125
*687 FILLER_17_15
*688 FILLER_17_155
*689 FILLER_17_164
*690 FILLER_17_169
*691 FILLER_17_181
*692 FILLER_17_193
*693 FILLER_17_205
*694 FILLER_17_217
*695 FILLER_17_223
*696 FILLER_17_225
*697 FILLER_17_240
*698 FILLER_17_251
*699 FILLER_17_263
*700 FILLER_17_27
*701 FILLER_17_275
*702 FILLER_17_279
*703 FILLER_17_281
*704 FILLER_17_293
*705 FILLER_17_3
*706 FILLER_17_305
*707 FILLER_17_317
*708 FILLER_17_329
*709 FILLER_17_335
*710 FILLER_17_349
*711 FILLER_17_361
*712 FILLER_17_373
*713 FILLER_17_378
*714 FILLER_17_39
*715 FILLER_17_390
*716 FILLER_17_393
*717 FILLER_17_51
*718 FILLER_17_55
*719 FILLER_17_57
*720 FILLER_17_69
*721 FILLER_17_81
*722 FILLER_17_93
*723 FILLER_18_109
*724 FILLER_18_121
*725 FILLER_18_129
*726 FILLER_18_149
*727 FILLER_18_15
*728 FILLER_18_161
*729 FILLER_18_169
*730 FILLER_18_185
*731 FILLER_18_193
*732 FILLER_18_197
*733 FILLER_18_209
*734 FILLER_18_221
*735 FILLER_18_233
*736 FILLER_18_241
*737 FILLER_18_246
*738 FILLER_18_257
*739 FILLER_18_269
*740 FILLER_18_27
*741 FILLER_18_29
*742 FILLER_18_3
*743 FILLER_18_301
*744 FILLER_18_307
*745 FILLER_18_309
*746 FILLER_18_321
*747 FILLER_18_329
*748 FILLER_18_346
*749 FILLER_18_358
*750 FILLER_18_365
*751 FILLER_18_373
*752 FILLER_18_386
*753 FILLER_18_398
*754 FILLER_18_406
*755 FILLER_18_41
*756 FILLER_18_53
*757 FILLER_18_65
*758 FILLER_18_77
*759 FILLER_18_83
*760 FILLER_18_85
*761 FILLER_18_97
*762 FILLER_19_105
*763 FILLER_19_111
*764 FILLER_19_113
*765 FILLER_19_125
*766 FILLER_19_137
*767 FILLER_19_141
*768 FILLER_19_15
*769 FILLER_19_153
*770 FILLER_19_165
*771 FILLER_19_169
*772 FILLER_19_179
*773 FILLER_19_191
*774 FILLER_19_197
*775 FILLER_19_209
*776 FILLER_19_221
*777 FILLER_19_225
*778 FILLER_19_237
*779 FILLER_19_248
*780 FILLER_19_260
*781 FILLER_19_27
*782 FILLER_19_272
*783 FILLER_19_281
*784 FILLER_19_293
*785 FILLER_19_3
*786 FILLER_19_305
*787 FILLER_19_317
*788 FILLER_19_325
*789 FILLER_19_337
*790 FILLER_19_349
*791 FILLER_19_361
*792 FILLER_19_373
*793 FILLER_19_381
*794 FILLER_19_39
*795 FILLER_19_397
*796 FILLER_19_51
*797 FILLER_19_55
*798 FILLER_19_57
*799 FILLER_19_69
*800 FILLER_19_81
*801 FILLER_19_93
*802 FILLER_1_105
*803 FILLER_1_111
*804 FILLER_1_113
*805 FILLER_1_125
*806 FILLER_1_137
*807 FILLER_1_149
*808 FILLER_1_15
*809 FILLER_1_161
*810 FILLER_1_167
*811 FILLER_1_169
*812 FILLER_1_181
*813 FILLER_1_193
*814 FILLER_1_205
*815 FILLER_1_217
*816 FILLER_1_223
*817 FILLER_1_225
*818 FILLER_1_237
*819 FILLER_1_249
*820 FILLER_1_261
*821 FILLER_1_27
*822 FILLER_1_273
*823 FILLER_1_279
*824 FILLER_1_281
*825 FILLER_1_293
*826 FILLER_1_3
*827 FILLER_1_305
*828 FILLER_1_317
*829 FILLER_1_329
*830 FILLER_1_335
*831 FILLER_1_337
*832 FILLER_1_349
*833 FILLER_1_361
*834 FILLER_1_373
*835 FILLER_1_385
*836 FILLER_1_39
*837 FILLER_1_391
*838 FILLER_1_393
*839 FILLER_1_405
*840 FILLER_1_51
*841 FILLER_1_55
*842 FILLER_1_57
*843 FILLER_1_69
*844 FILLER_1_81
*845 FILLER_1_93
*846 FILLER_20_109
*847 FILLER_20_121
*848 FILLER_20_129
*849 FILLER_20_141
*850 FILLER_20_15
*851 FILLER_20_153
*852 FILLER_20_165
*853 FILLER_20_177
*854 FILLER_20_204
*855 FILLER_20_216
*856 FILLER_20_228
*857 FILLER_20_240
*858 FILLER_20_253
*859 FILLER_20_265
*860 FILLER_20_27
*861 FILLER_20_280
*862 FILLER_20_29
*863 FILLER_20_292
*864 FILLER_20_3
*865 FILLER_20_306
*866 FILLER_20_314
*867 FILLER_20_326
*868 FILLER_20_334
*869 FILLER_20_342
*870 FILLER_20_354
*871 FILLER_20_363
*872 FILLER_20_368
*873 FILLER_20_385
*874 FILLER_20_397
*875 FILLER_20_41
*876 FILLER_20_53
*877 FILLER_20_65
*878 FILLER_20_77
*879 FILLER_20_83
*880 FILLER_20_85
*881 FILLER_20_97
*882 FILLER_21_105
*883 FILLER_21_111
*884 FILLER_21_113
*885 FILLER_21_121
*886 FILLER_21_144
*887 FILLER_21_15
*888 FILLER_21_156
*889 FILLER_21_169
*890 FILLER_21_177
*891 FILLER_21_194
*892 FILLER_21_206
*893 FILLER_21_218
*894 FILLER_21_225
*895 FILLER_21_237
*896 FILLER_21_249
*897 FILLER_21_261
*898 FILLER_21_27
*899 FILLER_21_273
*900 FILLER_21_279
*901 FILLER_21_281
*902 FILLER_21_293
*903 FILLER_21_3
*904 FILLER_21_305
*905 FILLER_21_317
*906 FILLER_21_329
*907 FILLER_21_335
*908 FILLER_21_337
*909 FILLER_21_349
*910 FILLER_21_361
*911 FILLER_21_373
*912 FILLER_21_39
*913 FILLER_21_390
*914 FILLER_21_393
*915 FILLER_21_401
*916 FILLER_21_51
*917 FILLER_21_55
*918 FILLER_21_57
*919 FILLER_21_69
*920 FILLER_21_81
*921 FILLER_21_93
*922 FILLER_22_109
*923 FILLER_22_121
*924 FILLER_22_139
*925 FILLER_22_15
*926 FILLER_22_150
*927 FILLER_22_162
*928 FILLER_22_178
*929 FILLER_22_186
*930 FILLER_22_204
*931 FILLER_22_226
*932 FILLER_22_238
*933 FILLER_22_250
*934 FILLER_22_253
*935 FILLER_22_265
*936 FILLER_22_27
*937 FILLER_22_277
*938 FILLER_22_29
*939 FILLER_22_292
*940 FILLER_22_3
*941 FILLER_22_304
*942 FILLER_22_309
*943 FILLER_22_322
*944 FILLER_22_330
*945 FILLER_22_345
*946 FILLER_22_357
*947 FILLER_22_363
*948 FILLER_22_365
*949 FILLER_22_377
*950 FILLER_22_389
*951 FILLER_22_401
*952 FILLER_22_41
*953 FILLER_22_53
*954 FILLER_22_65
*955 FILLER_22_77
*956 FILLER_22_83
*957 FILLER_22_85
*958 FILLER_22_97
*959 FILLER_23_105
*960 FILLER_23_111
*961 FILLER_23_113
*962 FILLER_23_121
*963 FILLER_23_128
*964 FILLER_23_144
*965 FILLER_23_15
*966 FILLER_23_156
*967 FILLER_23_169
*968 FILLER_23_181
*969 FILLER_23_193
*970 FILLER_23_205
*971 FILLER_23_217
*972 FILLER_23_223
*973 FILLER_23_225
*974 FILLER_23_237
*975 FILLER_23_249
*976 FILLER_23_261
*977 FILLER_23_27
*978 FILLER_23_273
*979 FILLER_23_279
*980 FILLER_23_281
*981 FILLER_23_293
*982 FILLER_23_3
*983 FILLER_23_305
*984 FILLER_23_309
*985 FILLER_23_315
*986 FILLER_23_327
*987 FILLER_23_335
*988 FILLER_23_337
*989 FILLER_23_349
*990 FILLER_23_361
*991 FILLER_23_373
*992 FILLER_23_385
*993 FILLER_23_39
*994 FILLER_23_391
*995 FILLER_23_393
*996 FILLER_23_405
*997 FILLER_23_51
*998 FILLER_23_55
*999 FILLER_23_57
*1000 FILLER_23_69
*1001 FILLER_23_81
*1002 FILLER_23_93
*1003 FILLER_24_109
*1004 FILLER_24_121
*1005 FILLER_24_136
*1006 FILLER_24_148
*1007 FILLER_24_15
*1008 FILLER_24_160
*1009 FILLER_24_172
*1010 FILLER_24_184
*1011 FILLER_24_197
*1012 FILLER_24_209
*1013 FILLER_24_221
*1014 FILLER_24_233
*1015 FILLER_24_241
*1016 FILLER_24_249
*1017 FILLER_24_253
*1018 FILLER_24_27
*1019 FILLER_24_271
*1020 FILLER_24_286
*1021 FILLER_24_29
*1022 FILLER_24_298
*1023 FILLER_24_3
*1024 FILLER_24_306
*1025 FILLER_24_309
*1026 FILLER_24_321
*1027 FILLER_24_333
*1028 FILLER_24_341
*1029 FILLER_24_356
*1030 FILLER_24_365
*1031 FILLER_24_377
*1032 FILLER_24_389
*1033 FILLER_24_401
*1034 FILLER_24_41
*1035 FILLER_24_53
*1036 FILLER_24_65
*1037 FILLER_24_77
*1038 FILLER_24_83
*1039 FILLER_24_85
*1040 FILLER_24_97
*1041 FILLER_25_105
*1042 FILLER_25_111
*1043 FILLER_25_113
*1044 FILLER_25_125
*1045 FILLER_25_146
*1046 FILLER_25_15
*1047 FILLER_25_158
*1048 FILLER_25_166
*1049 FILLER_25_169
*1050 FILLER_25_184
*1051 FILLER_25_196
*1052 FILLER_25_208
*1053 FILLER_25_220
*1054 FILLER_25_225
*1055 FILLER_25_233
*1056 FILLER_25_245
*1057 FILLER_25_257
*1058 FILLER_25_261
*1059 FILLER_25_269
*1060 FILLER_25_27
*1061 FILLER_25_277
*1062 FILLER_25_281
*1063 FILLER_25_293
*1064 FILLER_25_3
*1065 FILLER_25_305
*1066 FILLER_25_317
*1067 FILLER_25_329
*1068 FILLER_25_335
*1069 FILLER_25_337
*1070 FILLER_25_349
*1071 FILLER_25_361
*1072 FILLER_25_373
*1073 FILLER_25_385
*1074 FILLER_25_39
*1075 FILLER_25_391
*1076 FILLER_25_393
*1077 FILLER_25_405
*1078 FILLER_25_51
*1079 FILLER_25_55
*1080 FILLER_25_57
*1081 FILLER_25_69
*1082 FILLER_25_81
*1083 FILLER_25_93
*1084 FILLER_26_109
*1085 FILLER_26_121
*1086 FILLER_26_133
*1087 FILLER_26_141
*1088 FILLER_26_15
*1089 FILLER_26_153
*1090 FILLER_26_165
*1091 FILLER_26_177
*1092 FILLER_26_189
*1093 FILLER_26_195
*1094 FILLER_26_197
*1095 FILLER_26_209
*1096 FILLER_26_221
*1097 FILLER_26_233
*1098 FILLER_26_245
*1099 FILLER_26_251
*1100 FILLER_26_253
*1101 FILLER_26_265
*1102 FILLER_26_27
*1103 FILLER_26_277
*1104 FILLER_26_289
*1105 FILLER_26_29
*1106 FILLER_26_3
*1107 FILLER_26_301
*1108 FILLER_26_307
*1109 FILLER_26_309
*1110 FILLER_26_321
*1111 FILLER_26_333
*1112 FILLER_26_345
*1113 FILLER_26_353
*1114 FILLER_26_360
*1115 FILLER_26_365
*1116 FILLER_26_377
*1117 FILLER_26_389
*1118 FILLER_26_401
*1119 FILLER_26_41
*1120 FILLER_26_53
*1121 FILLER_26_65
*1122 FILLER_26_77
*1123 FILLER_26_83
*1124 FILLER_26_85
*1125 FILLER_26_97
*1126 FILLER_27_105
*1127 FILLER_27_111
*1128 FILLER_27_113
*1129 FILLER_27_125
*1130 FILLER_27_137
*1131 FILLER_27_15
*1132 FILLER_27_151
*1133 FILLER_27_163
*1134 FILLER_27_167
*1135 FILLER_27_169
*1136 FILLER_27_178
*1137 FILLER_27_190
*1138 FILLER_27_202
*1139 FILLER_27_214
*1140 FILLER_27_222
*1141 FILLER_27_225
*1142 FILLER_27_233
*1143 FILLER_27_239
*1144 FILLER_27_251
*1145 FILLER_27_27
*1146 FILLER_27_275
*1147 FILLER_27_279
*1148 FILLER_27_281
*1149 FILLER_27_293
*1150 FILLER_27_3
*1151 FILLER_27_301
*1152 FILLER_27_312
*1153 FILLER_27_328
*1154 FILLER_27_340
*1155 FILLER_27_344
*1156 FILLER_27_351
*1157 FILLER_27_363
*1158 FILLER_27_375
*1159 FILLER_27_387
*1160 FILLER_27_39
*1161 FILLER_27_391
*1162 FILLER_27_393
*1163 FILLER_27_405
*1164 FILLER_27_51
*1165 FILLER_27_55
*1166 FILLER_27_57
*1167 FILLER_27_69
*1168 FILLER_27_81
*1169 FILLER_27_93
*1170 FILLER_28_109
*1171 FILLER_28_121
*1172 FILLER_28_133
*1173 FILLER_28_139
*1174 FILLER_28_141
*1175 FILLER_28_15
*1176 FILLER_28_163
*1177 FILLER_28_183
*1178 FILLER_28_195
*1179 FILLER_28_197
*1180 FILLER_28_209
*1181 FILLER_28_215
*1182 FILLER_28_230
*1183 FILLER_28_234
*1184 FILLER_28_245
*1185 FILLER_28_251
*1186 FILLER_28_253
*1187 FILLER_28_269
*1188 FILLER_28_27
*1189 FILLER_28_281
*1190 FILLER_28_29
*1191 FILLER_28_293
*1192 FILLER_28_3
*1193 FILLER_28_305
*1194 FILLER_28_309
*1195 FILLER_28_321
*1196 FILLER_28_325
*1197 FILLER_28_342
*1198 FILLER_28_354
*1199 FILLER_28_362
*1200 FILLER_28_365
*1201 FILLER_28_377
*1202 FILLER_28_389
*1203 FILLER_28_401
*1204 FILLER_28_41
*1205 FILLER_28_53
*1206 FILLER_28_65
*1207 FILLER_28_77
*1208 FILLER_28_83
*1209 FILLER_28_85
*1210 FILLER_28_97
*1211 FILLER_29_105
*1212 FILLER_29_111
*1213 FILLER_29_113
*1214 FILLER_29_125
*1215 FILLER_29_137
*1216 FILLER_29_149
*1217 FILLER_29_15
*1218 FILLER_29_161
*1219 FILLER_29_167
*1220 FILLER_29_169
*1221 FILLER_29_179
*1222 FILLER_29_191
*1223 FILLER_29_203
*1224 FILLER_29_207
*1225 FILLER_29_215
*1226 FILLER_29_223
*1227 FILLER_29_243
*1228 FILLER_29_255
*1229 FILLER_29_27
*1230 FILLER_29_281
*1231 FILLER_29_293
*1232 FILLER_29_3
*1233 FILLER_29_305
*1234 FILLER_29_317
*1235 FILLER_29_329
*1236 FILLER_29_335
*1237 FILLER_29_337
*1238 FILLER_29_345
*1239 FILLER_29_360
*1240 FILLER_29_372
*1241 FILLER_29_384
*1242 FILLER_29_39
*1243 FILLER_29_393
*1244 FILLER_29_51
*1245 FILLER_29_55
*1246 FILLER_29_57
*1247 FILLER_29_69
*1248 FILLER_29_81
*1249 FILLER_29_93
*1250 FILLER_2_109
*1251 FILLER_2_121
*1252 FILLER_2_133
*1253 FILLER_2_139
*1254 FILLER_2_141
*1255 FILLER_2_15
*1256 FILLER_2_153
*1257 FILLER_2_165
*1258 FILLER_2_177
*1259 FILLER_2_189
*1260 FILLER_2_195
*1261 FILLER_2_200
*1262 FILLER_2_212
*1263 FILLER_2_224
*1264 FILLER_2_236
*1265 FILLER_2_248
*1266 FILLER_2_253
*1267 FILLER_2_265
*1268 FILLER_2_27
*1269 FILLER_2_277
*1270 FILLER_2_289
*1271 FILLER_2_29
*1272 FILLER_2_3
*1273 FILLER_2_301
*1274 FILLER_2_307
*1275 FILLER_2_309
*1276 FILLER_2_321
*1277 FILLER_2_333
*1278 FILLER_2_345
*1279 FILLER_2_357
*1280 FILLER_2_363
*1281 FILLER_2_365
*1282 FILLER_2_377
*1283 FILLER_2_389
*1284 FILLER_2_401
*1285 FILLER_2_41
*1286 FILLER_2_53
*1287 FILLER_2_65
*1288 FILLER_2_77
*1289 FILLER_2_83
*1290 FILLER_2_85
*1291 FILLER_2_97
*1292 FILLER_30_109
*1293 FILLER_30_121
*1294 FILLER_30_133
*1295 FILLER_30_139
*1296 FILLER_30_141
*1297 FILLER_30_15
*1298 FILLER_30_153
*1299 FILLER_30_165
*1300 FILLER_30_177
*1301 FILLER_30_189
*1302 FILLER_30_195
*1303 FILLER_30_197
*1304 FILLER_30_209
*1305 FILLER_30_221
*1306 FILLER_30_233
*1307 FILLER_30_245
*1308 FILLER_30_251
*1309 FILLER_30_253
*1310 FILLER_30_265
*1311 FILLER_30_27
*1312 FILLER_30_273
*1313 FILLER_30_289
*1314 FILLER_30_29
*1315 FILLER_30_295
*1316 FILLER_30_299
*1317 FILLER_30_3
*1318 FILLER_30_307
*1319 FILLER_30_309
*1320 FILLER_30_321
*1321 FILLER_30_333
*1322 FILLER_30_345
*1323 FILLER_30_357
*1324 FILLER_30_363
*1325 FILLER_30_365
*1326 FILLER_30_377
*1327 FILLER_30_389
*1328 FILLER_30_401
*1329 FILLER_30_41
*1330 FILLER_30_53
*1331 FILLER_30_65
*1332 FILLER_30_77
*1333 FILLER_30_83
*1334 FILLER_30_85
*1335 FILLER_30_97
*1336 FILLER_31_105
*1337 FILLER_31_111
*1338 FILLER_31_113
*1339 FILLER_31_125
*1340 FILLER_31_137
*1341 FILLER_31_149
*1342 FILLER_31_15
*1343 FILLER_31_161
*1344 FILLER_31_167
*1345 FILLER_31_169
*1346 FILLER_31_181
*1347 FILLER_31_193
*1348 FILLER_31_205
*1349 FILLER_31_217
*1350 FILLER_31_223
*1351 FILLER_31_225
*1352 FILLER_31_237
*1353 FILLER_31_249
*1354 FILLER_31_261
*1355 FILLER_31_27
*1356 FILLER_31_273
*1357 FILLER_31_279
*1358 FILLER_31_281
*1359 FILLER_31_290
*1360 FILLER_31_3
*1361 FILLER_31_302
*1362 FILLER_31_314
*1363 FILLER_31_326
*1364 FILLER_31_334
*1365 FILLER_31_337
*1366 FILLER_31_349
*1367 FILLER_31_361
*1368 FILLER_31_373
*1369 FILLER_31_385
*1370 FILLER_31_39
*1371 FILLER_31_391
*1372 FILLER_31_393
*1373 FILLER_31_405
*1374 FILLER_31_51
*1375 FILLER_31_55
*1376 FILLER_31_57
*1377 FILLER_31_69
*1378 FILLER_31_81
*1379 FILLER_31_93
*1380 FILLER_32_109
*1381 FILLER_32_121
*1382 FILLER_32_133
*1383 FILLER_32_139
*1384 FILLER_32_141
*1385 FILLER_32_15
*1386 FILLER_32_153
*1387 FILLER_32_165
*1388 FILLER_32_177
*1389 FILLER_32_189
*1390 FILLER_32_195
*1391 FILLER_32_197
*1392 FILLER_32_210
*1393 FILLER_32_216
*1394 FILLER_32_228
*1395 FILLER_32_240
*1396 FILLER_32_253
*1397 FILLER_32_265
*1398 FILLER_32_27
*1399 FILLER_32_281
*1400 FILLER_32_29
*1401 FILLER_32_293
*1402 FILLER_32_3
*1403 FILLER_32_305
*1404 FILLER_32_309
*1405 FILLER_32_321
*1406 FILLER_32_333
*1407 FILLER_32_345
*1408 FILLER_32_357
*1409 FILLER_32_363
*1410 FILLER_32_365
*1411 FILLER_32_377
*1412 FILLER_32_389
*1413 FILLER_32_397
*1414 FILLER_32_41
*1415 FILLER_32_53
*1416 FILLER_32_65
*1417 FILLER_32_77
*1418 FILLER_32_83
*1419 FILLER_32_85
*1420 FILLER_32_97
*1421 FILLER_33_105
*1422 FILLER_33_111
*1423 FILLER_33_113
*1424 FILLER_33_125
*1425 FILLER_33_131
*1426 FILLER_33_142
*1427 FILLER_33_15
*1428 FILLER_33_154
*1429 FILLER_33_166
*1430 FILLER_33_169
*1431 FILLER_33_181
*1432 FILLER_33_193
*1433 FILLER_33_205
*1434 FILLER_33_211
*1435 FILLER_33_219
*1436 FILLER_33_223
*1437 FILLER_33_225
*1438 FILLER_33_237
*1439 FILLER_33_249
*1440 FILLER_33_261
*1441 FILLER_33_27
*1442 FILLER_33_273
*1443 FILLER_33_279
*1444 FILLER_33_281
*1445 FILLER_33_285
*1446 FILLER_33_293
*1447 FILLER_33_3
*1448 FILLER_33_304
*1449 FILLER_33_316
*1450 FILLER_33_328
*1451 FILLER_33_337
*1452 FILLER_33_349
*1453 FILLER_33_361
*1454 FILLER_33_373
*1455 FILLER_33_385
*1456 FILLER_33_39
*1457 FILLER_33_391
*1458 FILLER_33_393
*1459 FILLER_33_405
*1460 FILLER_33_51
*1461 FILLER_33_55
*1462 FILLER_33_57
*1463 FILLER_33_69
*1464 FILLER_33_81
*1465 FILLER_33_93
*1466 FILLER_34_117
*1467 FILLER_34_133
*1468 FILLER_34_139
*1469 FILLER_34_141
*1470 FILLER_34_153
*1471 FILLER_34_165
*1472 FILLER_34_18
*1473 FILLER_34_181
*1474 FILLER_34_193
*1475 FILLER_34_197
*1476 FILLER_34_210
*1477 FILLER_34_220
*1478 FILLER_34_224
*1479 FILLER_34_230
*1480 FILLER_34_236
*1481 FILLER_34_245
*1482 FILLER_34_251
*1483 FILLER_34_253
*1484 FILLER_34_257
*1485 FILLER_34_26
*1486 FILLER_34_269
*1487 FILLER_34_281
*1488 FILLER_34_29
*1489 FILLER_34_293
*1490 FILLER_34_305
*1491 FILLER_34_309
*1492 FILLER_34_321
*1493 FILLER_34_333
*1494 FILLER_34_345
*1495 FILLER_34_357
*1496 FILLER_34_363
*1497 FILLER_34_365
*1498 FILLER_34_377
*1499 FILLER_34_389
*1500 FILLER_34_401
*1501 FILLER_34_41
*1502 FILLER_34_53
*1503 FILLER_34_6
*1504 FILLER_34_65
*1505 FILLER_34_77
*1506 FILLER_34_83
*1507 FILLER_34_85
*1508 FILLER_34_97
*1509 FILLER_35_116
*1510 FILLER_35_120
*1511 FILLER_35_130
*1512 FILLER_35_142
*1513 FILLER_35_158
*1514 FILLER_35_166
*1515 FILLER_35_169
*1516 FILLER_35_173
*1517 FILLER_35_183
*1518 FILLER_35_194
*1519 FILLER_35_206
*1520 FILLER_35_21
*1521 FILLER_35_220
*1522 FILLER_35_225
*1523 FILLER_35_237
*1524 FILLER_35_245
*1525 FILLER_35_257
*1526 FILLER_35_269
*1527 FILLER_35_277
*1528 FILLER_35_281
*1529 FILLER_35_293
*1530 FILLER_35_299
*1531 FILLER_35_310
*1532 FILLER_35_322
*1533 FILLER_35_33
*1534 FILLER_35_334
*1535 FILLER_35_337
*1536 FILLER_35_349
*1537 FILLER_35_361
*1538 FILLER_35_373
*1539 FILLER_35_385
*1540 FILLER_35_391
*1541 FILLER_35_393
*1542 FILLER_35_405
*1543 FILLER_35_45
*1544 FILLER_35_53
*1545 FILLER_35_57
*1546 FILLER_35_69
*1547 FILLER_35_81
*1548 FILLER_35_9
*1549 FILLER_35_93
*1550 FILLER_35_99
*1551 FILLER_36_119
*1552 FILLER_36_131
*1553 FILLER_36_139
*1554 FILLER_36_141
*1555 FILLER_36_15
*1556 FILLER_36_153
*1557 FILLER_36_165
*1558 FILLER_36_177
*1559 FILLER_36_197
*1560 FILLER_36_209
*1561 FILLER_36_221
*1562 FILLER_36_233
*1563 FILLER_36_245
*1564 FILLER_36_251
*1565 FILLER_36_253
*1566 FILLER_36_264
*1567 FILLER_36_27
*1568 FILLER_36_276
*1569 FILLER_36_288
*1570 FILLER_36_29
*1571 FILLER_36_3
*1572 FILLER_36_300
*1573 FILLER_36_309
*1574 FILLER_36_321
*1575 FILLER_36_333
*1576 FILLER_36_345
*1577 FILLER_36_357
*1578 FILLER_36_363
*1579 FILLER_36_365
*1580 FILLER_36_377
*1581 FILLER_36_389
*1582 FILLER_36_401
*1583 FILLER_36_41
*1584 FILLER_36_53
*1585 FILLER_36_65
*1586 FILLER_36_77
*1587 FILLER_36_83
*1588 FILLER_36_85
*1589 FILLER_36_91
*1590 FILLER_37_107
*1591 FILLER_37_111
*1592 FILLER_37_113
*1593 FILLER_37_125
*1594 FILLER_37_133
*1595 FILLER_37_142
*1596 FILLER_37_15
*1597 FILLER_37_167
*1598 FILLER_37_169
*1599 FILLER_37_181
*1600 FILLER_37_194
*1601 FILLER_37_206
*1602 FILLER_37_218
*1603 FILLER_37_225
*1604 FILLER_37_237
*1605 FILLER_37_249
*1606 FILLER_37_265
*1607 FILLER_37_27
*1608 FILLER_37_277
*1609 FILLER_37_281
*1610 FILLER_37_293
*1611 FILLER_37_3
*1612 FILLER_37_306
*1613 FILLER_37_310
*1614 FILLER_37_314
*1615 FILLER_37_326
*1616 FILLER_37_334
*1617 FILLER_37_337
*1618 FILLER_37_349
*1619 FILLER_37_361
*1620 FILLER_37_373
*1621 FILLER_37_385
*1622 FILLER_37_39
*1623 FILLER_37_391
*1624 FILLER_37_393
*1625 FILLER_37_405
*1626 FILLER_37_51
*1627 FILLER_37_55
*1628 FILLER_37_57
*1629 FILLER_37_69
*1630 FILLER_37_95
*1631 FILLER_38_109
*1632 FILLER_38_121
*1633 FILLER_38_133
*1634 FILLER_38_149
*1635 FILLER_38_15
*1636 FILLER_38_161
*1637 FILLER_38_173
*1638 FILLER_38_185
*1639 FILLER_38_193
*1640 FILLER_38_197
*1641 FILLER_38_209
*1642 FILLER_38_221
*1643 FILLER_38_233
*1644 FILLER_38_245
*1645 FILLER_38_251
*1646 FILLER_38_253
*1647 FILLER_38_265
*1648 FILLER_38_27
*1649 FILLER_38_277
*1650 FILLER_38_289
*1651 FILLER_38_29
*1652 FILLER_38_3
*1653 FILLER_38_301
*1654 FILLER_38_307
*1655 FILLER_38_316
*1656 FILLER_38_328
*1657 FILLER_38_340
*1658 FILLER_38_352
*1659 FILLER_38_365
*1660 FILLER_38_377
*1661 FILLER_38_389
*1662 FILLER_38_401
*1663 FILLER_38_41
*1664 FILLER_38_54
*1665 FILLER_38_66
*1666 FILLER_38_78
*1667 FILLER_38_85
*1668 FILLER_38_97
*1669 FILLER_39_110
*1670 FILLER_39_117
*1671 FILLER_39_129
*1672 FILLER_39_144
*1673 FILLER_39_15
*1674 FILLER_39_156
*1675 FILLER_39_167
*1676 FILLER_39_169
*1677 FILLER_39_181
*1678 FILLER_39_193
*1679 FILLER_39_199
*1680 FILLER_39_204
*1681 FILLER_39_216
*1682 FILLER_39_225
*1683 FILLER_39_237
*1684 FILLER_39_249
*1685 FILLER_39_257
*1686 FILLER_39_27
*1687 FILLER_39_276
*1688 FILLER_39_281
*1689 FILLER_39_293
*1690 FILLER_39_3
*1691 FILLER_39_305
*1692 FILLER_39_315
*1693 FILLER_39_327
*1694 FILLER_39_335
*1695 FILLER_39_337
*1696 FILLER_39_349
*1697 FILLER_39_361
*1698 FILLER_39_373
*1699 FILLER_39_385
*1700 FILLER_39_39