*SPEF "ieee 1481-1999"
*DESIGN "SarsaNada_e6"
*DATE "11:45:18 Friday September 12, 2025"
*VENDOR "The OpenROAD Project"
*PROGRAM "OpenROAD"
*VERSION "edf00dff99f6c40d67a30c0e22a8191c5d2ed9d6"
*DESIGN_FLOW "NAME_SCOPE LOCAL" "PIN_CAP NONE"
*DIVIDER /
*DELIMITER :
*BUS_DELIMITER []
*T_UNIT 1 NS
*C_UNIT 1 PF
*R_UNIT 1 OHM
*L_UNIT 1 HENRY

*NAME_MAP
*1 A[0]
*2 A[1]
*3 B[0]
*4 B[1]
*5 P[0]
*6 P[1]
*7 P[2]
*8 P[3]
*11 _0_
*12 _1_
*13 _2_
*14 net1
*15 net2
*16 net3
*17 net4
*18 net5
*19 net6
*20 net7
*21 net8
*22 FILLER_0_15
*23 FILLER_0_27
*24 FILLER_0_29
*25 FILLER_0_3
*26 FILLER_0_41
*27 FILLER_0_49
*28 FILLER_0_55
*29 FILLER_0_57
*30 FILLER_0_69
*31 FILLER_1_15
*32 FILLER_1_27
*33 FILLER_1_3
*34 FILLER_1_39
*35 FILLER_1_51
*36 FILLER_1_55
*37 FILLER_1_57
*38 FILLER_1_69
*39 FILLER_2_15
*40 FILLER_2_27
*41 FILLER_2_29
*42 FILLER_2_3
*43 FILLER_2_41
*44 FILLER_2_53
*45 FILLER_2_65
*46 FILLER_2_77
*47 FILLER_3_15
*48 FILLER_3_27
*49 FILLER_3_3
*50 FILLER_3_39
*51 FILLER_3_51
*52 FILLER_3_55
*53 FILLER_3_57
*54 FILLER_3_69
*55 FILLER_4_18
*56 FILLER_4_26
*57 FILLER_4_29
*58 FILLER_4_35
*59 FILLER_4_41
*60 FILLER_4_53
*61 FILLER_4_6
*62 FILLER_4_65
*63 FILLER_4_77
*64 FILLER_5_25
*65 FILLER_5_29
*66 FILLER_5_33
*67 FILLER_5_45
*68 FILLER_5_53
*69 FILLER_5_57
*70 FILLER_5_69
*71 FILLER_5_7
*72 FILLER_6_18
*73 FILLER_6_26
*74 FILLER_6_29
*75 FILLER_6_41
*76 FILLER_6_53
*77 FILLER_6_6
*78 FILLER_6_65
*79 FILLER_6_77
*80 FILLER_7_18
*81 FILLER_7_30
*82 FILLER_7_42
*83 FILLER_7_54
*84 FILLER_7_57
*85 FILLER_7_6
*86 FILLER_7_69
*87 FILLER_8_11
*88 FILLER_8_20
*89 FILLER_8_3
*90 FILLER_8_38
*91 FILLER_8_50
*92 FILLER_8_62
*93 FILLER_8_74
*94 FILLER_8_80
*95 FILLER_9_19
*96 FILLER_9_27
*97 FILLER_9_29
*98 FILLER_9_37
*99 FILLER_9_42
*100 FILLER_9_48
*101 FILLER_9_57
*102 FILLER_9_69
*103 FILLER_9_7
*104 PHY_EDGE_ROW_0_Left_10
*105 PHY_EDGE_ROW_0_Right_0
*106 PHY_EDGE_ROW_1_Left_11
*107 PHY_EDGE_ROW_1_Right_1
*108 PHY_EDGE_ROW_2_Left_12
*109 PHY_EDGE_ROW_2_Right_2
*110 PHY_EDGE_ROW_3_Left_13
*111 PHY_EDGE_ROW_3_Right_3
*112 PHY_EDGE_ROW_4_Left_14
*113 PHY_EDGE_ROW_4_Right_4
*114 PHY_EDGE_ROW_5_Left_15
*115 PHY_EDGE_ROW_5_Right_5
*116 PHY_EDGE_ROW_6_Left_16
*117 PHY_EDGE_ROW_6_Right_6
*118 PHY_EDGE_ROW_7_Left_17
*119 PHY_EDGE_ROW_7_Right_7
*120 PHY_EDGE_ROW_8_Left_18
*121 PHY_EDGE_ROW_8_Right_8
*122 PHY_EDGE_ROW_9_Left_19
*123 PHY_EDGE_ROW_9_Right_9
*124 TAP_TAPCELL_ROW_0_20
*125 TAP_TAPCELL_ROW_0_21
*126 TAP_TAPCELL_ROW_1_22
*127 TAP_TAPCELL_ROW_2_23
*128 TAP_TAPCELL_ROW_3_24
*129 TAP_TAPCELL_ROW_4_25
*130 TAP_TAPCELL_ROW_5_26
*131 TAP_TAPCELL_ROW_6_27
*132 TAP_TAPCELL_ROW_7_28
*133 TAP_TAPCELL_ROW_8_29
*134 TAP_TAPCELL_ROW_9_30
*135 TAP_TAPCELL_ROW_9_31
*136 _3_
*137 _4_
*138 _5_
*139 _6_
*140 _7_
*141 _8_
*142 _9_
*143 input1
*144 input2
*145 input3
*146 input4
*147 output5
*148 output6
*149 output7
*150 output8

*PORTS
A[0] I
A[1] I
B[0] I
B[1] I
P[0] O
P[1] O
P[2] O
P[3] O

*D_NET *1 0.000487581
*CONN
*P A[0] I
*I *143:A I *D sky130_fd_sc_hd__buf_1
*CAP
1 A[0] 0.000218292
2 *143:A 0.000218292
3 *143:A P[0] 2.85068e-05
4 *143:A P[3] 0
5 *143:A *139:B1 0
6 *143:A *145:A 2.24901e-05
*RES
1 A[0] *143:A 5.35677 
*END

*D_NET *2 0.000641155
*CONN
*P A[1] I
*I *144:A I *D sky130_fd_sc_hd__buf_1
*CAP
1 A[1] 0.000305759
2 *144:A 0.000305759
3 *144:A P[0] 2.96366e-05
*RES
1 A[1] *144:A 7.8543 
*END

*D_NET *3 0.000535548
*CONN
*P B[0] I
*I *145:A I *D sky130_fd_sc_hd__buf_1
*CAP
1 B[0] 0.000242276
2 *145:A 0.000242276
3 *145:A P[3] 2.85068e-05
4 *143:A *145:A 2.24901e-05
*RES
1 B[0] *145:A 6.8343 
*END

*D_NET *4 0.000951653
*CONN
*P B[1] I
*I *146:A I *D sky130_fd_sc_hd__buf_1
*CAP
1 B[1] 0.000475826
2 *146:A 0.000475826
3 *146:A P[1] 0
4 *146:A *148:A 0
*RES
1 B[1] *146:A 12.06 
*END

*D_NET *5 0.000661148
*CONN
*P P[0] O
*I *147:X O *D sky130_fd_sc_hd__buf_2
*CAP
1 P[0] 0.000301502
2 *147:X 0.000301502
3 *143:A P[0] 2.85068e-05
4 *144:A P[0] 2.96366e-05
*RES
1 *147:X P[0] 7.1793 
*END

*D_NET *6 0.000896884
*CONN
*P P[1] O
*I *148:X O *D sky130_fd_sc_hd__buf_2
*CAP
1 P[1] 0.000448442
2 *148:X 0.000448442
3 *146:A P[1] 0
*RES
1 *148:X P[1] 11.55 
*END

*D_NET *7 0.000868071
*CONN
*P P[2] O
*I *149:X O *D sky130_fd_sc_hd__buf_2
*CAP
1 P[2] 0.000434035
2 *149:X 0.000434035
*RES
1 *149:X P[2] 10.74 
*END

*D_NET *8 0.00061677
*CONN
*P P[3] O
*I *150:X O *D sky130_fd_sc_hd__buf_2
*CAP
1 P[3] 0.000265209
2 *150:X 0.000265209
3 P[3] *150:A 5.78448e-05
4 *143:A P[3] 0
5 *145:A P[3] 2.85068e-05
*RES
1 *150:X P[3] 5.92503 
*END

*D_NET *11 9.80988e-05
*CONN
*I *139:A2 I *D sky130_fd_sc_hd__a21o_1
*I *138:X O *D sky130_fd_sc_hd__o21ba_1
*CAP
1 *139:A2 6.72493e-06
2 *138:X 6.72493e-06
3 *139:A2 *136:A 1.16578e-05
4 *139:A2 *138:B1_N 4.99619e-05
5 *139:A2 *139:A1 2.30292e-05
*RES
1 *138:X *139:A2 3.65 
*END

*D_NET *12 0.000362446
*CONN
*I *141:B I *D sky130_fd_sc_hd__nor2_1
*I *140:Y O *D sky130_fd_sc_hd__a22oi_1
*CAP
1 *141:B 0.000154107
2 *140:Y 0.000154107
3 *141:B *140:A1 1.07015e-05
4 *141:B *140:A2 3.68349e-05
5 *141:B *148:A 6.69608e-06
*RES
1 *140:Y *141:B 6.32 
*END

*D_NET *13 0.000772096
*CONN
*I *142:C I *D sky130_fd_sc_hd__and3_1
*I *136:Y O *D sky130_fd_sc_hd__nand2_1
*CAP
1 *142:C 0.000378056
2 *136:Y 0.000378056
3 *142:C *136:A 1.33269e-05
4 *142:C *142:B 2.65814e-06
*RES
1 *136:Y *142:C 11.775 
*END

*D_NET *14 0.00358959
*CONN
*I *140:B2 I *D sky130_fd_sc_hd__a22oi_1
*I *137:D I *D sky130_fd_sc_hd__and4_1
*I *138:A2 I *D sky130_fd_sc_hd__o21ba_1
*I *136:B I *D sky130_fd_sc_hd__nand2_1
*I *143:X O *D sky130_fd_sc_hd__buf_1
*CAP
1 *140:B2 4.96271e-05
2 *137:D 5.78655e-05
3 *138:A2 0
4 *136:B 0.000165927
5 *143:X 0.000561843
6 *14:32 0.000264585
7 *14:12 0.00028611
8 *14:8 0.000839118
9 *136:B *136:A 0.000192797
10 *136:B *138:B1_N 1.37328e-05
11 *137:D *137:C 1.47256e-05
12 *137:D *140:A1 6.6564e-05
13 *137:D *140:A2 0.000199833
14 *137:D *15:31 8.65905e-05
15 *137:D *16:36 8.65961e-05
16 *140:B2 *140:A1 0.000161837
17 *140:B2 *140:A2 0.000264677
18 *14:12 *137:C 0.000124532
19 *14:12 *15:31 0
20 *14:12 *16:12 0
21 *14:12 *17:20 5.53249e-06
22 *14:32 *137:C 0.000147093
23 *14:32 *16:12 0
*RES
1 *143:X *14:8 9.57 
2 *14:8 *14:12 4.655 
3 *14:12 *136:B 5.185 
4 *14:12 *138:A2 1.6 
5 *14:8 *14:32 5.165 
6 *14:32 *137:D 4.12 
7 *14:32 *140:B2 4.12 
*END

*D_NET *15 0.00519274
*CONN
*I *138:B1_N I *D sky130_fd_sc_hd__o21ba_1
*I *140:A2 I *D sky130_fd_sc_hd__a22oi_1
*I *137:B I *D sky130_fd_sc_hd__and4_1
*I *142:A I *D sky130_fd_sc_hd__and3_1
*I *144:X O *D sky130_fd_sc_hd__buf_1
*CAP
1 *138:B1_N 0.000101464
2 *140:A2 0.000458445
3 *137:B 0
4 *142:A 0.000604629
5 *144:X 0.000252613
6 *15:31 0.000728479
7 *15:14 0.000874663
8 *15:12 0.000354077
9 *138:B1_N *136:A 4.60584e-05
10 *138:B1_N *139:A1 1.61831e-05
11 *140:A2 *140:A1 9.6444e-05
12 *142:A *142:B 5.89987e-05
13 *142:A *17:20 9.73618e-05
14 *15:12 *147:A 0.000203178
15 *15:31 *139:B1 0.00036532
16 *15:31 *16:12 0.000147066
17 *15:31 *16:36 2.16389e-05
18 *15:31 *17:20 0
19 *15:31 *21:21 0.000114492
20 *136:B *138:B1_N 1.37328e-05
21 *137:D *140:A2 0.000199833
22 *137:D *15:31 8.65905e-05
23 *139:A2 *138:B1_N 4.99619e-05
24 *140:B2 *140:A2 0.000264677
25 *141:B *140:A2 3.68349e-05
26 *14:12 *15:31 0
*RES
1 *144:X *15:12 10.19 
2 *15:12 *15:14 2 
3 *15:14 *142:A 13.695 
4 *15:14 *15:31 8.855 
5 *15:31 *137:B 1.6 
6 *15:31 *140:A2 8.4775 
7 *15:12 *138:B1_N 3.79 
*END

*D_NET *16 0.00385049
*CONN
*I *140:A1 I *D sky130_fd_sc_hd__a22oi_1
*I *137:A I *D sky130_fd_sc_hd__and4_1
*I *136:A I *D sky130_fd_sc_hd__nand2_1
*I *139:A1 I *D sky130_fd_sc_hd__a21o_1
*I *145:X O *D sky130_fd_sc_hd__buf_1
*CAP
1 *140:A1 0.000211108
2 *137:A 0
3 *136:A 0.000350201
4 *139:A1 5.73437e-05
5 *145:X 0.000372009
6 *16:36 0.000320419
7 *16:12 0.000611368
8 *16:8 0.000685143
9 *140:A1 *137:C 0.000215236
10 *16:8 *141:A 9.02174e-05
11 *16:36 *137:C 4.35432e-05
12 *136:B *136:A 0.000192797
13 *137:D *140:A1 6.6564e-05
14 *137:D *16:36 8.65961e-05
15 *138:B1_N *136:A 4.60584e-05
16 *138:B1_N *139:A1 1.61831e-05
17 *139:A2 *136:A 1.16578e-05
18 *139:A2 *139:A1 2.30292e-05
19 *140:A2 *140:A1 9.6444e-05
20 *140:B2 *140:A1 0.000161837
21 *141:B *140:A1 1.07015e-05
22 *142:C *136:A 1.33269e-05
23 *14:12 *16:12 0
24 *14:32 *16:12 0
25 *15:31 *16:12 0.000147066
26 *15:31 *16:36 2.16389e-05
*RES
1 *145:X *16:8 7.845 
2 *16:8 *16:12 6.185 
3 *16:12 *139:A1 2.395 
4 *16:12 *136:A 7.6 
5 *16:8 *16:36 4.175 
6 *16:36 *137:A 1.6 
7 *16:36 *140:A1 7.27 
*END

*D_NET *17 0.00436839
*CONN
*I *140:B1 I *D sky130_fd_sc_hd__a22oi_1
*I *142:B I *D sky130_fd_sc_hd__and3_1
*I *137:C I *D sky130_fd_sc_hd__and4_1
*I *138:A1 I *D sky130_fd_sc_hd__o21ba_1
*I *146:X O *D sky130_fd_sc_hd__buf_1
*CAP
1 *140:B1 0
2 *142:B 0.000204934
3 *137:C 0.000444056
4 *138:A1 0
5 *146:X 0.000565652
6 *17:20 0.000727386
7 *17:14 0.000819647
8 *17:10 0.000897035
9 *17:10 *141:A 0
10 *17:10 *148:A 0
11 *17:14 *141:A 0
12 *137:D *137:C 1.47256e-05
13 *140:A1 *137:C 0.000215236
14 *142:A *142:B 5.89987e-05
15 *142:A *17:20 9.73618e-05
16 *142:C *142:B 2.65814e-06
17 *14:12 *137:C 0.000124532
18 *14:12 *17:20 5.53249e-06
19 *14:32 *137:C 0.000147093
20 *15:31 *17:20 0
21 *16:36 *137:C 4.35432e-05
*RES
1 *146:X *17:10 10.17 
2 *17:10 *17:14 9.5 
3 *17:14 *17:20 6.155 
4 *17:20 *138:A1 3.6 
5 *17:20 *137:C 13.56 
6 *17:14 *142:B 4.12 
7 *17:10 *140:B1 3.6 
*END

*D_NET *18 0.000353103
*CONN
*I *147:A I *D sky130_fd_sc_hd__buf_2
*I *139:X O *D sky130_fd_sc_hd__a21o_1
*CAP
1 *147:A 7.49625e-05
2 *139:X 7.49625e-05
3 *15:12 *147:A 0.000203178
*RES
1 *139:X *147:A 5.03 
*END

*D_NET *19 0.000297852
*CONN
*I *148:A I *D sky130_fd_sc_hd__buf_2
*I *141:Y O *D sky130_fd_sc_hd__nor2_1
*CAP
1 *148:A 0.000145578
2 *141:Y 0.000145578
3 *141:B *148:A 6.69608e-06
4 *146:A *148:A 0
5 *17:10 *148:A 0
*RES
1 *141:Y *148:A 9.285 
*END

*D_NET *20 0.00131158
*CONN
*I *149:A I *D sky130_fd_sc_hd__buf_2
*I *142:X O *D sky130_fd_sc_hd__and3_1
*CAP
1 *149:A 0.000655791
2 *142:X 0.000655791
*RES
1 *142:X *149:A 16.785 
*END

*D_NET *21 0.00319593
*CONN
*I *141:A I *D sky130_fd_sc_hd__nor2_1
*I *139:B1 I *D sky130_fd_sc_hd__a21o_1
*I *150:A I *D sky130_fd_sc_hd__buf_2
*I *137:X O *D sky130_fd_sc_hd__and4_1
*CAP
1 *141:A 0.000661662
2 *139:B1 0.000170692
3 *150:A 0.000386514
4 *137:X 0
5 *21:21 0.000897512
6 *21:4 0.000451673
7 P[3] *150:A 5.78448e-05
8 *143:A *139:B1 0
9 *15:31 *139:B1 0.00036532
10 *15:31 *21:21 0.000114492
11 *16:8 *141:A 9.02174e-05
12 *17:10 *141:A 0
13 *17:14 *141:A 0
*RES
1 *137:X *21:4 1.6 
2 *21:4 *150:A 11.03 
3 *21:4 *21:21 3.38 
4 *21:21 *139:B1 7.785 
5 *21:21 *141:A 17.185 
*END
