*SPEF "ieee 1481-1999"
*DESIGN "SarsanStepsNada_e8"
*DATE "11:51:30 Friday September 12, 2025"
*VENDOR "The OpenROAD Project"
*PROGRAM "OpenROAD"
*VERSION "edf00dff99f6c40d67a30c0e22a8191c5d2ed9d6"
*DESIGN_FLOW "NAME_SCOPE LOCAL" "PIN_CAP NONE"
*DIVIDER /
*DELIMITER :
*BUS_DELIMITER []
*T_UNIT 1 NS
*C_UNIT 1 PF
*R_UNIT 1 OHM
*L_UNIT 1 HENRY

*NAME_MAP
*1 A[0]
*2 A[1]
*3 B[0]
*4 B[1]
*5 P[0]
*6 P[1]
*7 P[2]
*8 P[3]
*11 _0_
*12 _1_
*13 _2_
*14 net1
*15 net2
*16 net3
*17 net4
*18 net5
*19 net6
*20 net7
*21 net8
*22 FILLER_0_15
*23 FILLER_0_27
*24 FILLER_0_29
*25 FILLER_0_3
*26 FILLER_0_41
*27 FILLER_0_53
*28 FILLER_0_57
*29 FILLER_0_69
*30 FILLER_1_15
*31 FILLER_1_27
*32 FILLER_1_3
*33 FILLER_1_39
*34 FILLER_1_51
*35 FILLER_1_55
*36 FILLER_1_57
*37 FILLER_1_69
*38 FILLER_2_15
*39 FILLER_2_27
*40 FILLER_2_29
*41 FILLER_2_3
*42 FILLER_2_41
*43 FILLER_2_53
*44 FILLER_2_65
*45 FILLER_2_77
*46 FILLER_3_15
*47 FILLER_3_27
*48 FILLER_3_3
*49 FILLER_3_39
*50 FILLER_3_51
*51 FILLER_3_55
*52 FILLER_3_60
*53 FILLER_3_72
*54 FILLER_3_80
*55 FILLER_4_10
*56 FILLER_4_19
*57 FILLER_4_27
*58 FILLER_4_29
*59 FILLER_4_37
*60 FILLER_4_45
*61 FILLER_4_6
*62 FILLER_4_64
*63 FILLER_4_76
*64 FILLER_5_19
*65 FILLER_5_31
*66 FILLER_5_43
*67 FILLER_5_55
*68 FILLER_5_57
*69 FILLER_5_7
*70 FILLER_5_72
*71 FILLER_6_19
*72 FILLER_6_27
*73 FILLER_6_29
*74 FILLER_6_41
*75 FILLER_6_53
*76 FILLER_6_65
*77 FILLER_6_7
*78 FILLER_7_15
*79 FILLER_7_27
*80 FILLER_7_3
*81 FILLER_7_39
*82 FILLER_7_51
*83 FILLER_7_55
*84 FILLER_7_57
*85 FILLER_7_69
*86 FILLER_7_77
*87 FILLER_8_15
*88 FILLER_8_27
*89 FILLER_8_29
*90 FILLER_8_3
*91 FILLER_8_41
*92 FILLER_8_53
*93 FILLER_8_65
*94 FILLER_8_77
*95 FILLER_9_15
*96 FILLER_9_27
*97 FILLER_9_29
*98 FILLER_9_3
*99 FILLER_9_41
*100 FILLER_9_53
*101 FILLER_9_57
*102 FILLER_9_69
*103 PHY_EDGE_ROW_0_Left_10
*104 PHY_EDGE_ROW_0_Right_0
*105 PHY_EDGE_ROW_1_Left_11
*106 PHY_EDGE_ROW_1_Right_1
*107 PHY_EDGE_ROW_2_Left_12
*108 PHY_EDGE_ROW_2_Right_2
*109 PHY_EDGE_ROW_3_Left_13
*110 PHY_EDGE_ROW_3_Right_3
*111 PHY_EDGE_ROW_4_Left_14
*112 PHY_EDGE_ROW_4_Right_4
*113 PHY_EDGE_ROW_5_Left_15
*114 PHY_EDGE_ROW_5_Right_5
*115 PHY_EDGE_ROW_6_Left_16
*116 PHY_EDGE_ROW_6_Right_6
*117 PHY_EDGE_ROW_7_Left_17
*118 PHY_EDGE_ROW_7_Right_7
*119 PHY_EDGE_ROW_8_Left_18
*120 PHY_EDGE_ROW_8_Right_8
*121 PHY_EDGE_ROW_9_Left_19
*122 PHY_EDGE_ROW_9_Right_9
*123 TAP_TAPCELL_ROW_0_20
*124 TAP_TAPCELL_ROW_0_21
*125 TAP_TAPCELL_ROW_1_22
*126 TAP_TAPCELL_ROW_2_23
*127 TAP_TAPCELL_ROW_3_24
*128 TAP_TAPCELL_ROW_4_25
*129 TAP_TAPCELL_ROW_5_26
*130 TAP_TAPCELL_ROW_6_27
*131 TAP_TAPCELL_ROW_7_28
*132 TAP_TAPCELL_ROW_8_29
*133 TAP_TAPCELL_ROW_9_30
*134 TAP_TAPCELL_ROW_9_31
*135 _3_
*136 _4_
*137 _5_
*138 _6_
*139 _7_
*140 _8_
*141 _9_
*142 input1
*143 input2
*144 input3
*145 input4
*146 output5
*147 output6
*148 output7
*149 output8

*PORTS
A[0] I
A[1] I
B[0] I
B[1] I
P[0] O
P[1] O
P[2] O
P[3] O

*D_NET *1 0.000437736
*CONN
*P A[0] I
*I *142:A I *D sky130_fd_sc_hd__buf_1
*CAP
1 A[0] 0.000178561
2 *142:A 0.000178561
3 *142:A P[2] 8.06147e-05
*RES
1 A[0] *142:A 47.0789 
*END

*D_NET *2 0.000650413
*CONN
*P A[1] I
*I *143:A I *D sky130_fd_sc_hd__buf_1
*CAP
1 A[1] 0.000245778
2 *143:A 0.000245778
3 *143:A P[2] 8.06147e-05
4 *143:A P[3] 7.82427e-05
*RES
1 A[1] *143:A 48.8397 
*END

*D_NET *3 0.000489415
*CONN
*P B[0] I
*I *144:A I *D sky130_fd_sc_hd__buf_1
*CAP
1 B[0] 0.000208628
2 *144:A 0.000208628
3 *144:A P[3] 7.21596e-05
*RES
1 B[0] *144:A 47.4311 
*END

*D_NET *4 0.000733319
*CONN
*P B[1] I
*I *145:A I *D sky130_fd_sc_hd__buf_1
*CAP
1 B[1] 0.000352215
2 *145:A 0
3 *4:17 0.000352215
4 *4:17 P[1] 2.43221e-05
5 *4:17 *6:14 4.56684e-06
*RES
1 B[1] *4:17 28.2148 
2 *4:17 *145:A 23 
*END

*D_NET *5 0.000541528
*CONN
*P P[0] O
*I *146:X O *D sky130_fd_sc_hd__buf_2
*CAP
1 P[0] 0.000256808
2 *146:X 0.000256808
3 P[0] P[1] 1.5289e-05
4 P[0] *6:14 1.26232e-05
*RES
1 *146:X P[0] 47.1648 
*END

*D_NET *6 0.000763907
*CONN
*P P[1] O
*I *147:X O *D sky130_fd_sc_hd__buf_2
*CAP
1 P[1] 7.58295e-05
2 *147:X 0.000277724
3 *6:14 0.000353553
4 P[0] P[1] 1.5289e-05
5 P[0] *6:14 1.26232e-05
6 *4:17 P[1] 2.43221e-05
7 *4:17 *6:14 4.56684e-06
*RES
1 *147:X *6:14 49.9 
2 *6:14 P[1] 0.382667 
*END

*D_NET *7 0.000677737
*CONN
*P P[2] O
*I *148:X O *D sky130_fd_sc_hd__buf_2
*CAP
1 P[2] 0.000258254
2 *148:X 0.000258254
3 P[2] P[3] 0
4 *142:A P[2] 8.06147e-05
5 *143:A P[2] 8.06147e-05
*RES
1 *148:X P[2] 48.5734 
*END

*D_NET *8 0.000535246
*CONN
*P P[3] O
*I *149:X O *D sky130_fd_sc_hd__buf_2
*CAP
1 P[3] 0.000186051
2 *149:X 0.000186051
3 P[3] *21:10 1.27424e-05
4 P[2] P[3] 0
5 *143:A P[3] 7.82427e-05
6 *144:A P[3] 7.21596e-05
*RES
1 *149:X P[3] 47.1648 
*END

*D_NET *11 0.0017692
*CONN
*I *138:A2 I *D sky130_fd_sc_hd__o21a_1
*I *140:A2 I *D sky130_fd_sc_hd__o211a_1
*I *136:Y O *D sky130_fd_sc_hd__inv_2
*CAP
1 *138:A2 0.000124414
2 *140:A2 0
3 *136:Y 0.00017242
4 *11:12 0.000124414
5 *11:10 0.00017242
6 *138:A2 *138:A1 0.000464997
7 *138:A2 *138:B1 0.000185544
8 *138:A2 *140:C1 3.10605e-06
9 *138:A2 *15:28 0.000141954
10 *138:A2 *16:25 0.000171296
11 *138:A2 *17:19 1.76557e-05
12 *138:A2 *17:34 5.47808e-05
13 *11:10 *141:D 4.23714e-05
14 *11:10 *14:20 5.70419e-05
15 *11:10 *15:18 1.14452e-05
16 *11:10 *15:28 2.5343e-05
*RES
1 *136:Y *11:10 41.0036 
2 *11:10 *11:12 15 
3 *11:12 *140:A2 23 
4 *11:12 *138:A2 29.8357 
*END

*D_NET *12 0.00148399
*CONN
*I *139:A2 I *D sky130_fd_sc_hd__o21ba_1
*I *138:X O *D sky130_fd_sc_hd__o21a_1
*CAP
1 *139:A2 0
2 *138:X 0.000220308
3 *12:8 0.000220308
4 *12:8 *139:A1 6.81213e-05
5 *12:8 *139:B1_N 1.37232e-05
6 *12:8 *17:8 2.4754e-05
7 *12:8 *17:12 0.000360282
8 *12:8 *18:6 0.000576496
*RES
1 *138:X *12:8 34.6 
2 *12:8 *139:A2 23 
*END

*D_NET *13 0.000406402
*CONN
*I *140:A1 I *D sky130_fd_sc_hd__o211a_1
*I *135:Y O *D sky130_fd_sc_hd__inv_2
*CAP
1 *140:A1 5.47849e-05
2 *135:Y 5.47849e-05
3 *140:A1 *16:25 0.000126847
4 *140:A1 *17:34 6.9805e-05
5 *140:A1 *20:8 0.00010018
*RES
1 *135:Y *140:A1 48.5271 
*END

*D_NET *14 0.00425214
*CONN
*I *141:D I *D sky130_fd_sc_hd__and4_1
*I *136:A I *D sky130_fd_sc_hd__inv_2
*I *137:D I *D sky130_fd_sc_hd__and4_1
*I *142:X O *D sky130_fd_sc_hd__buf_1
*CAP
1 *141:D 0.000673095
2 *136:A 0
3 *137:D 0
4 *142:X 0.000823388
5 *14:20 0.00041848
6 *14:12 0.00041848
7 *14:10 0.00149648
8 *141:D *15:8 5.67058e-05
9 *141:D *15:18 0.000266098
10 *141:D *16:10 0
11 *141:D *16:16 0
12 *141:D *17:34 0
13 *11:10 *141:D 4.23714e-05
14 *11:10 *14:20 5.70419e-05
*RES
1 *142:X *14:10 49.455 
2 *14:10 *14:12 15 
3 *14:12 *14:20 37.6436 
4 *14:20 *137:D 23 
5 *14:12 *136:A 23 
6 *14:10 *141:D 49.3929 
*END

*D_NET *15 0.00347128
*CONN
*I *141:C I *D sky130_fd_sc_hd__and4_1
*I *140:B1 I *D sky130_fd_sc_hd__o211a_1
*I *137:C I *D sky130_fd_sc_hd__and4_1
*I *138:B1 I *D sky130_fd_sc_hd__o21a_1
*I *143:X O *D sky130_fd_sc_hd__buf_1
*CAP
1 *141:C 0
2 *140:B1 0
3 *137:C 0
4 *138:B1 0.000104053
5 *143:X 0.000201596
6 *15:28 0.000287406
7 *15:18 0.000694707
8 *15:8 0.00071295
9 *138:B1 *138:A1 0.000113624
10 *138:B1 *140:C1 0
11 *138:B1 *17:12 0.000303153
12 *138:B1 *18:6 1.08287e-05
13 *15:8 *21:10 0.000274078
14 *15:28 *17:12 2.4754e-05
15 *15:28 *17:19 5.70419e-05
16 *138:A2 *138:B1 0.000185544
17 *138:A2 *15:28 0.000141954
18 *141:D *15:8 5.67058e-05
19 *141:D *15:18 0.000266098
20 *11:10 *15:18 1.14452e-05
21 *11:10 *15:28 2.5343e-05
*RES
1 *143:X *15:8 28.4064 
2 *15:8 *15:18 25.295 
3 *15:18 *15:28 18.7907 
4 *15:28 *138:B1 28.0957 
5 *15:28 *137:C 23 
6 *15:18 *140:B1 38 
7 *15:8 *141:C 23 
*END

*D_NET *16 0.00416589
*CONN
*I *141:A I *D sky130_fd_sc_hd__and4_1
*I *137:A I *D sky130_fd_sc_hd__and4_1
*I *138:A1 I *D sky130_fd_sc_hd__o21a_1
*I *135:A I *D sky130_fd_sc_hd__inv_2
*I *144:X O *D sky130_fd_sc_hd__buf_1
*CAP
1 *141:A 0
2 *137:A 0
3 *138:A1 0.000187995
4 *135:A 0
5 *144:X 0.000727377
6 *16:25 0.00047985
7 *16:16 0.000510458
8 *16:10 0.00094598
9 *138:A1 *18:6 0.000190627
10 *16:16 *17:34 0.000126936
11 *16:16 *20:8 0.00010018
12 *16:25 *17:34 7.44161e-06
13 *16:25 *20:8 1.22822e-05
14 *138:A2 *138:A1 0.000464997
15 *138:A2 *16:25 0.000171296
16 *138:B1 *138:A1 0.000113624
17 *140:A1 *16:25 0.000126847
18 *141:D *16:10 0
19 *141:D *16:16 0
*RES
1 *144:X *16:10 48.7093 
2 *16:10 *16:16 19.7643 
3 *16:16 *135:A 23 
4 *16:16 *16:25 6.235 
5 *16:25 *138:A1 29.8564 
6 *16:25 *137:A 23 
7 *16:10 *141:A 38 
*END

*D_NET *17 0.00568877
*CONN
*I *139:A1 I *D sky130_fd_sc_hd__o21ba_1
*I *141:B I *D sky130_fd_sc_hd__and4_1
*I *140:C1 I *D sky130_fd_sc_hd__o211a_1
*I *137:B I *D sky130_fd_sc_hd__and4_1
*I *145:X O *D sky130_fd_sc_hd__buf_1
*CAP
1 *139:A1 2.43679e-05
2 *141:B 0
3 *140:C1 4.32924e-05
4 *137:B 0
5 *145:X 0.000330821
6 *17:34 0.000600851
7 *17:19 0.000730679
8 *17:12 0.00110484
9 *17:8 0.00137349
10 *17:8 *18:6 3.98818e-05
11 *17:12 *18:6 6.86648e-06
12 *17:34 *20:8 0.000315852
13 *138:A2 *140:C1 3.10605e-06
14 *138:A2 *17:19 1.76557e-05
15 *138:A2 *17:34 5.47808e-05
16 *138:B1 *140:C1 0
17 *138:B1 *17:12 0.000303153
18 *140:A1 *17:34 6.9805e-05
19 *141:D *17:34 0
20 *12:8 *139:A1 6.81213e-05
21 *12:8 *17:8 2.4754e-05
22 *12:8 *17:12 0.000360282
23 *15:28 *17:12 2.4754e-05
24 *15:28 *17:19 5.70419e-05
25 *16:16 *17:34 0.000126936
26 *16:25 *17:34 7.44161e-06
*RES
1 *145:X *17:8 29.3593 
2 *17:8 *17:12 16.3643 
3 *17:12 *137:B 23 
4 *17:12 *17:19 1.57429 
5 *17:19 *140:C1 23.8493 
6 *17:19 *17:34 40.8336 
7 *17:34 *141:B 23 
8 *17:8 *139:A1 24.1186 
*END

*D_NET *18 0.00384748
*CONN
*I *146:A I *D sky130_fd_sc_hd__buf_2
*I *139:B1_N I *D sky130_fd_sc_hd__o21ba_1
*I *137:X O *D sky130_fd_sc_hd__and4_1
*CAP
1 *146:A 0
2 *139:B1_N 5.07307e-05
3 *137:X 0.00097138
4 *18:21 0.000439852
5 *18:6 0.00146196
6 *18:21 *19:8 8.51329e-05
7 *138:A1 *18:6 0.000190627
8 *138:B1 *18:6 1.08287e-05
9 *12:8 *139:B1_N 1.37232e-05
10 *12:8 *18:6 0.000576496
11 *17:8 *18:6 3.98818e-05
12 *17:12 *18:6 6.86648e-06
*RES
1 *137:X *18:6 38.8671 
2 *18:6 *139:B1_N 24.2014 
3 *18:6 *18:21 38.2029 
4 *18:21 *146:A 23 
*END

*D_NET *19 0.000568691
*CONN
*I *147:A I *D sky130_fd_sc_hd__buf_2
*I *139:X O *D sky130_fd_sc_hd__o21ba_1
*CAP
1 *147:A 0.000145038
2 *139:X 9.67411e-05
3 *19:8 0.000241779
4 *18:21 *19:8 8.51329e-05
*RES
1 *139:X *19:8 40.2579 
2 *19:8 *147:A 40.5271 
*END

*D_NET *20 0.00126629
*CONN
*I *148:A I *D sky130_fd_sc_hd__buf_2
*I *140:X O *D sky130_fd_sc_hd__o211a_1
*CAP
1 *148:A 0
2 *140:X 0.000368897
3 *20:8 0.000368897
4 *140:A1 *20:8 0.00010018
5 *16:16 *20:8 0.00010018
6 *16:25 *20:8 1.22822e-05
7 *17:34 *20:8 0.000315852
*RES
1 *140:X *20:8 31.7414 
2 *20:8 *148:A 23 
*END

*D_NET *21 0.000856009
*CONN
*I *149:A I *D sky130_fd_sc_hd__buf_2
*I *141:X O *D sky130_fd_sc_hd__and4_1
*CAP
1 *149:A 0
2 *141:X 0.000284594
3 *21:10 0.000284594
4 P[3] *21:10 1.27424e-05
5 *15:8 *21:10 0.000274078
*RES
1 *141:X *21:10 42.9093 
2 *21:10 *149:A 38 
*END
