*SPEF "ieee 1481-1999"
*DESIGN "SARSA_WInd_e9"
*DATE "09:53:08 Friday September 12, 2025"
*VENDOR "The OpenROAD Project"
*PROGRAM "OpenROAD"
*VERSION "edf00dff99f6c40d67a30c0e22a8191c5d2ed9d6"
*DESIGN_FLOW "NAME_SCOPE LOCAL" "PIN_CAP NONE"
*DIVIDER /
*DELIMITER :
*BUS_DELIMITER []
*T_UNIT 1 NS
*C_UNIT 1 PF
*R_UNIT 1 OHM
*L_UNIT 1 HENRY

*NAME_MAP
*1 A[0]
*2 A[1]
*3 B[0]
*4 B[1]
*5 P[0]
*6 P[1]
*7 P[2]
*8 P[3]
*11 net1
*12 net2
*13 net3
*14 net4
*15 net5
*16 net6
*17 net7
*18 net8
*19 FILLER_0_15
*20 FILLER_0_27
*21 FILLER_0_29
*22 FILLER_0_3
*23 FILLER_0_41
*24 FILLER_0_53
*25 FILLER_0_57
*26 FILLER_0_69
*27 FILLER_1_15
*28 FILLER_1_27
*29 FILLER_1_3
*30 FILLER_1_39
*31 FILLER_1_51
*32 FILLER_1_55
*33 FILLER_1_57
*34 FILLER_1_69
*35 FILLER_2_18
*36 FILLER_2_26
*37 FILLER_2_29
*38 FILLER_2_41
*39 FILLER_2_53
*40 FILLER_2_6
*41 FILLER_2_65
*42 FILLER_2_77
*43 FILLER_3_15
*44 FILLER_3_27
*45 FILLER_3_3
*46 FILLER_3_39
*47 FILLER_3_51
*48 FILLER_3_55
*49 FILLER_3_57
*50 FILLER_3_69
*51 FILLER_4_11
*52 FILLER_4_17
*53 FILLER_4_21
*54 FILLER_4_29
*55 FILLER_4_39
*56 FILLER_4_51
*57 FILLER_4_63
*58 FILLER_4_7
*59 FILLER_4_75
*60 FILLER_5_18
*61 FILLER_5_30
*62 FILLER_5_38
*63 FILLER_5_50
*64 FILLER_5_57
*65 FILLER_5_6
*66 FILLER_5_69
*67 FILLER_6_19
*68 FILLER_6_27
*69 FILLER_6_29
*70 FILLER_6_41
*71 FILLER_6_53
*72 FILLER_6_65
*73 FILLER_6_7
*74 FILLER_6_77
*75 FILLER_7_18
*76 FILLER_7_30
*77 FILLER_7_42
*78 FILLER_7_54
*79 FILLER_7_57
*80 FILLER_7_6
*81 FILLER_7_69
*82 FILLER_8_15
*83 FILLER_8_27
*84 FILLER_8_29
*85 FILLER_8_3
*86 FILLER_8_41
*87 FILLER_8_53
*88 FILLER_8_65
*89 FILLER_8_77
*90 FILLER_9_15
*91 FILLER_9_27
*92 FILLER_9_29
*93 FILLER_9_3
*94 FILLER_9_41
*95 FILLER_9_53
*96 FILLER_9_57
*97 FILLER_9_69
*98 PHY_EDGE_ROW_0_Left_10
*99 PHY_EDGE_ROW_0_Right_0
*100 PHY_EDGE_ROW_1_Left_11
*101 PHY_EDGE_ROW_1_Right_1
*102 PHY_EDGE_ROW_2_Left_12
*103 PHY_EDGE_ROW_2_Right_2
*104 PHY_EDGE_ROW_3_Left_13
*105 PHY_EDGE_ROW_3_Right_3
*106 PHY_EDGE_ROW_4_Left_14
*107 PHY_EDGE_ROW_4_Right_4
*108 PHY_EDGE_ROW_5_Left_15
*109 PHY_EDGE_ROW_5_Right_5
*110 PHY_EDGE_ROW_6_Left_16
*111 PHY_EDGE_ROW_6_Right_6
*112 PHY_EDGE_ROW_7_Left_17
*113 PHY_EDGE_ROW_7_Right_7
*114 PHY_EDGE_ROW_8_Left_18
*115 PHY_EDGE_ROW_8_Right_8
*116 PHY_EDGE_ROW_9_Left_19
*117 PHY_EDGE_ROW_9_Right_9
*118 TAP_TAPCELL_ROW_0_20
*119 TAP_TAPCELL_ROW_0_21
*120 TAP_TAPCELL_ROW_1_22
*121 TAP_TAPCELL_ROW_2_23
*122 TAP_TAPCELL_ROW_3_24
*123 TAP_TAPCELL_ROW_4_25
*124 TAP_TAPCELL_ROW_5_26
*125 TAP_TAPCELL_ROW_6_27
*126 TAP_TAPCELL_ROW_7_28
*127 TAP_TAPCELL_ROW_8_29
*128 TAP_TAPCELL_ROW_9_30
*129 TAP_TAPCELL_ROW_9_31
*130 _0_
*131 _1_
*132 _2_
*133 _3_
*134 input1
*135 input2
*136 input3
*137 input4
*138 output5
*139 output6
*140 output7
*141 output8

*PORTS
A[0] I
A[1] I
B[0] I
B[1] I
P[0] O
P[1] O
P[2] O
P[3] O

*D_NET *1 0.000666589
*CONN
*P A[0] I
*I *134:A I *D sky130_fd_sc_hd__clkbuf_1
*CAP
1 A[0] 0.000320228
2 *134:A 0
3 *1:17 0.000320228
4 *1:17 P[1] 2.61329e-05
*RES
1 A[0] *1:17 27.1584 
2 *1:17 *134:A 23 
*END

*D_NET *2 0.000523661
*CONN
*P A[1] I
*I *135:A I *D sky130_fd_sc_hd__buf_1
*CAP
1 A[1] 0.000215152
2 *135:A 0.000215152
3 *135:A P[3] 8.06147e-05
4 *135:A *12:8 1.27424e-05
*RES
1 A[1] *135:A 47.7832 
*END

*D_NET *3 0.00071699
*CONN
*P B[0] I
*I *136:A I *D sky130_fd_sc_hd__clkbuf_1
*CAP
1 B[0] 0.000330094
2 *136:A 0
3 *3:17 0.000330094
4 *3:17 P[0] 2.79122e-05
5 *3:17 P[1] 2.88889e-05
*RES
1 B[0] *3:17 27.8627 
2 *3:17 *136:A 23 
*END

*D_NET *4 0.000616196
*CONN
*P B[1] I
*I *137:A I *D sky130_fd_sc_hd__clkbuf_1
*CAP
1 B[1] 0.000297475
2 *137:A 0.000297475
3 *137:A P[0] 2.12457e-05
*RES
1 B[1] *137:A 49.8062 
*END

*D_NET *5 0.000554623
*CONN
*P P[0] O
*I *138:X O *D sky130_fd_sc_hd__buf_2
*CAP
1 P[0] 0.000252732
2 *138:X 0.000252732
3 *137:A P[0] 2.12457e-05
4 *3:17 P[0] 2.79122e-05
*RES
1 *138:X P[0] 47.1648 
*END

*D_NET *6 0.000829325
*CONN
*P P[1] O
*I *139:X O *D sky130_fd_sc_hd__buf_2
*CAP
1 P[1] 9.33412e-05
2 *139:X 0.00029381
3 *6:10 0.000387151
4 *1:17 P[1] 2.61329e-05
5 *3:17 P[1] 2.88889e-05
*RES
1 *139:X *6:10 42.5054 
2 *6:10 P[1] 8.4816 
*END

*D_NET *7 0.000673721
*CONN
*P P[2] O
*I *140:X O *D sky130_fd_sc_hd__buf_2
*CAP
1 P[2] 0.000293173
2 *140:X 0.000293173
3 P[2] P[3] 8.73764e-05
*RES
1 *140:X P[2] 48.5734 
*END

*D_NET *8 0.000624353
*CONN
*P P[3] O
*I *141:X O *D sky130_fd_sc_hd__buf_2
*CAP
1 P[3] 0.000223109
2 *141:X 0.000223109
3 P[3] *12:8 1.01436e-05
4 P[2] P[3] 8.73764e-05
5 *135:A P[3] 8.06147e-05
*RES
1 *141:X P[3] 47.8691 
*END

*D_NET *11 0.0011945
*CONN
*I *130:B I *D sky130_fd_sc_hd__and2_1
*I *134:X O *D sky130_fd_sc_hd__clkbuf_1
*CAP
1 *130:B 0
2 *134:X 0.000586836
3 *11:10 0.000586836
4 *11:10 *133:C 0
5 *11:10 *15:14 2.08324e-05
*RES
1 *134:X *11:10 47.1557 
2 *11:10 *130:B 38 
*END

*D_NET *12 0.00490489
*CONN
*I *133:B I *D sky130_fd_sc_hd__and3b_1
*I *132:A1 I *D sky130_fd_sc_hd__a21boi_1
*I *131:B I *D sky130_fd_sc_hd__and3_1
*I *135:X O *D sky130_fd_sc_hd__buf_1
*CAP
1 *133:B 0
2 *132:A1 0.000378486
3 *131:B 0.000171327
4 *135:X 0.000150182
5 *12:27 0.000573401
6 *12:12 0.00162516
7 *12:8 0.0014091
8 *131:B *131:C 1.68459e-06
9 *131:B *18:10 9.53265e-06
10 *132:A1 *133:A_N 9.25117e-05
11 *132:A1 *133:C 1.56673e-05
12 *132:A1 *15:14 2.47094e-05
13 *12:12 *18:10 0.000373524
14 *12:27 *17:10 5.67058e-05
15 P[3] *12:8 1.01436e-05
16 *135:A *12:8 1.27424e-05
*RES
1 *135:X *12:8 40.9621 
2 *12:8 *12:12 33.7257 
3 *12:12 *131:B 25.0507 
4 *12:12 *12:27 32.7757 
5 *12:27 *132:A1 29.1107 
6 *12:27 *133:B 23 
*END

*D_NET *13 0.000768185
*CONN
*I *130:A I *D sky130_fd_sc_hd__and2_1
*I *136:X O *D sky130_fd_sc_hd__clkbuf_1
*CAP
1 *130:A 0
2 *136:X 0.000384093
3 *13:10 0.000384093
4 *13:10 *15:14 0
5 *13:10 *15:28 0
*RES
1 *136:X *13:10 43.3857 
2 *13:10 *130:A 38 
*END

*D_NET *14 0.00431153
*CONN
*I *131:A I *D sky130_fd_sc_hd__and3_1
*I *132:B1_N I *D sky130_fd_sc_hd__a21boi_1
*I *133:C I *D sky130_fd_sc_hd__and3b_1
*I *137:X O *D sky130_fd_sc_hd__clkbuf_1
*CAP
1 *131:A 0.000173177
2 *132:B1_N 0
3 *133:C 0.000476227
4 *137:X 0.00062377
5 *14:12 0.000670669
6 *14:10 0.000625946
7 *14:8 0.000882098
8 *131:A *131:C 0.000491339
9 *133:C *133:A_N 0.000123729
10 *133:C *15:14 0.000228909
11 *14:10 *138:A 0
12 *14:10 *15:28 0
13 *14:12 *15:14 0
14 *14:12 *15:28 0
15 *132:A1 *133:C 1.56673e-05
16 *11:10 *133:C 0
*RES
1 *137:X *14:8 46.2443 
2 *14:8 *14:10 4.37071 
3 *14:10 *14:12 3.66643 
4 *14:12 *133:C 45.6643 
5 *14:12 *132:B1_N 38 
6 *14:10 *131:A 43.3857 
*END

*D_NET *15 0.00419581
*CONN
*I *138:A I *D sky130_fd_sc_hd__buf_2
*I *131:C I *D sky130_fd_sc_hd__and3_1
*I *133:A_N I *D sky130_fd_sc_hd__and3b_1
*I *132:A2 I *D sky130_fd_sc_hd__a21boi_1
*I *130:X O *D sky130_fd_sc_hd__and2_1
*CAP
1 *138:A 0.000391212
2 *131:C 0.000631549
3 *133:A_N 4.52723e-05
4 *132:A2 0
5 *130:X 0
6 *15:28 0.00118025
7 *15:14 0.0003267
8 *15:6 0.000438914
9 *15:14 *16:10 0.000198206
10 *131:A *131:C 0.000491339
11 *131:B *131:C 1.68459e-06
12 *132:A1 *133:A_N 9.25117e-05
13 *132:A1 *15:14 2.47094e-05
14 *133:C *133:A_N 0.000123729
15 *133:C *15:14 0.000228909
16 *11:10 *15:14 2.08324e-05
17 *13:10 *15:14 0
18 *13:10 *15:28 0
19 *14:10 *138:A 0
20 *14:10 *15:28 0
21 *14:12 *15:14 0
22 *14:12 *15:28 0
*RES
1 *130:X *15:6 38 
2 *15:6 *15:14 22.4364 
3 *15:14 *132:A2 23 
4 *15:14 *133:A_N 25.5271 
5 *15:6 *15:28 2.96214 
6 *15:28 *131:C 47.28 
7 *15:28 *138:A 44.815 
*END

*D_NET *16 0.0011182
*CONN
*I *139:A I *D sky130_fd_sc_hd__buf_2
*I *132:Y O *D sky130_fd_sc_hd__a21boi_1
*CAP
1 *139:A 0
2 *132:Y 0.00046
3 *16:10 0.00046
4 *15:14 *16:10 0.000198206
*RES
1 *132:Y *16:10 32.3629 
2 *16:10 *139:A 23 
*END

*D_NET *17 0.00223534
*CONN
*I *140:A I *D sky130_fd_sc_hd__buf_2
*I *133:X O *D sky130_fd_sc_hd__and3b_1
*CAP
1 *140:A 0
2 *133:X 0.00108931
3 *17:10 0.00108931
4 *12:27 *17:10 5.67058e-05
*RES
1 *133:X *17:10 42.72 
2 *17:10 *140:A 23 
*END

*D_NET *18 0.00275577
*CONN
*I *141:A I *D sky130_fd_sc_hd__buf_2
*I *131:X O *D sky130_fd_sc_hd__and3_1
*CAP
1 *141:A 0
2 *131:X 0.00118636
3 *18:10 0.00118636
4 *131:B *18:10 9.53265e-06
5 *12:12 *18:10 0.000373524
*RES
1 *131:X *18:10 43.1964 
2 *18:10 *141:A 23 
*END
