*SPEF "ieee 1481-1999"
*DESIGN "SarsaNada_e10"
*DATE "14:06:12 Tuesday September 16, 2025"
*VENDOR "The OpenROAD Project"
*PROGRAM "OpenROAD"
*VERSION "edf00dff99f6c40d67a30c0e22a8191c5d2ed9d6"
*DESIGN_FLOW "NAME_SCOPE LOCAL" "PIN_CAP NONE"
*DIVIDER /
*DELIMITER :
*BUS_DELIMITER []
*T_UNIT 1 NS
*C_UNIT 1 PF
*R_UNIT 1 OHM
*L_UNIT 1 HENRY

*NAME_MAP
*1 A[0]
*2 A[1]
*3 B[0]
*4 B[1]
*5 P[0]
*6 P[1]
*7 P[2]
*8 net7
*11 net1
*12 net2
*13 net3
*14 net4
*15 net5
*16 net6
*17 pp0
*18 pp1
*19 pp2
*20 FILLER_0_15
*21 FILLER_0_27
*22 FILLER_0_29
*23 FILLER_0_3
*24 FILLER_0_41
*25 FILLER_0_53
*26 FILLER_0_57
*27 FILLER_0_69
*28 FILLER_1_15
*29 FILLER_1_27
*30 FILLER_1_3
*31 FILLER_1_39
*32 FILLER_1_51
*33 FILLER_1_55
*34 FILLER_1_57
*35 FILLER_1_69
*36 FILLER_2_15
*37 FILLER_2_27
*38 FILLER_2_29
*39 FILLER_2_3
*40 FILLER_2_41
*41 FILLER_2_53
*42 FILLER_2_65
*43 FILLER_2_77
*44 FILLER_3_15
*45 FILLER_3_24
*46 FILLER_3_3
*47 FILLER_3_36
*48 FILLER_3_48
*49 FILLER_3_57
*50 FILLER_3_69
*51 FILLER_4_17
*52 FILLER_4_25
*53 FILLER_4_29
*54 FILLER_4_41
*55 FILLER_4_53
*56 FILLER_4_6
*57 FILLER_4_65
*58 FILLER_5_20
*59 FILLER_5_24
*60 FILLER_5_36
*61 FILLER_5_48
*62 FILLER_5_57
*63 FILLER_5_6
*64 FILLER_5_69
*65 FILLER_6_16
*66 FILLER_6_29
*67 FILLER_6_41
*68 FILLER_6_53
*69 FILLER_6_65
*70 FILLER_6_7
*71 FILLER_6_77
*72 FILLER_7_18
*73 FILLER_7_30
*74 FILLER_7_42
*75 FILLER_7_54
*76 FILLER_7_57
*77 FILLER_7_6
*78 FILLER_7_69
*79 FILLER_8_15
*80 FILLER_8_27
*81 FILLER_8_29
*82 FILLER_8_3
*83 FILLER_8_41
*84 FILLER_8_53
*85 FILLER_8_65
*86 FILLER_8_77
*87 FILLER_9_15
*88 FILLER_9_27
*89 FILLER_9_29
*90 FILLER_9_3
*91 FILLER_9_41
*92 FILLER_9_53
*93 FILLER_9_57
*94 FILLER_9_69
*95 PHY_EDGE_ROW_0_Left_10
*96 PHY_EDGE_ROW_0_Right_0
*97 PHY_EDGE_ROW_1_Left_11
*98 PHY_EDGE_ROW_1_Right_1
*99 PHY_EDGE_ROW_2_Left_12
*100 PHY_EDGE_ROW_2_Right_2
*101 PHY_EDGE_ROW_3_Left_13
*102 PHY_EDGE_ROW_3_Right_3
*103 PHY_EDGE_ROW_4_Left_14
*104 PHY_EDGE_ROW_4_Right_4
*105 PHY_EDGE_ROW_5_Left_15
*106 PHY_EDGE_ROW_5_Right_5
*107 PHY_EDGE_ROW_6_Left_16
*108 PHY_EDGE_ROW_6_Right_6
*109 PHY_EDGE_ROW_7_Left_17
*110 PHY_EDGE_ROW_7_Right_7
*111 PHY_EDGE_ROW_8_Left_18
*112 PHY_EDGE_ROW_8_Right_8
*113 PHY_EDGE_ROW_9_Left_19
*114 PHY_EDGE_ROW_9_Right_9
*115 SarsaNada_e10_7
*116 TAP_TAPCELL_ROW_0_20
*117 TAP_TAPCELL_ROW_0_21
*118 TAP_TAPCELL_ROW_1_22
*119 TAP_TAPCELL_ROW_2_23
*120 TAP_TAPCELL_ROW_3_24
*121 TAP_TAPCELL_ROW_4_25
*122 TAP_TAPCELL_ROW_5_26
*123 TAP_TAPCELL_ROW_6_27
*124 TAP_TAPCELL_ROW_7_28
*125 TAP_TAPCELL_ROW_8_29
*126 TAP_TAPCELL_ROW_9_30
*127 TAP_TAPCELL_ROW_9_31
*128 _0_
*129 _1_
*130 _2_
*131 _4_
*132 _5_
*133 _6_
*134 input1
*135 input2
*136 input3
*137 output4
*138 output5
*139 output6

*PORTS
A[0] I
A[1] I
B[0] I
B[1] I
P[0] O
P[1] O
P[2] O
P[3] O

*D_NET *1 0.000733319
*CONN
*P A[0] I
*I *134:A I *D sky130_fd_sc_hd__clkbuf_1
*CAP
1 A[0] 0.000352215
2 *134:A 0
3 *1:17 0.000352215
4 *1:17 *4:17 2.88889e-05
*RES
1 A[0] *1:17 28.2148 
2 *1:17 *134:A 23 
*END

*D_NET *2 0.000616196
*CONN
*P A[1] I
*I *135:A I *D sky130_fd_sc_hd__buf_1
*CAP
1 A[1] 0.000297475
2 *135:A 0.000297475
3 *135:A P[0] 2.12457e-05
*RES
1 A[1] *135:A 49.8062 
*END

*D_NET *4 0.00071699
*CONN
*P B[1] I
*I *136:A I *D sky130_fd_sc_hd__clkbuf_1
*CAP
1 B[1] 0.000330094
2 *136:A 0
3 *4:17 0.000330094
4 *4:17 P[0] 2.79122e-05
5 *1:17 *4:17 2.88889e-05
*RES
1 B[1] *4:17 27.8627 
2 *4:17 *136:A 23 
*END

*D_NET *5 0.000557539
*CONN
*P P[0] O
*I *137:X O *D sky130_fd_sc_hd__buf_2
*CAP
1 P[0] 0.000249258
2 *137:X 0.000249258
3 P[0] *14:10 9.86551e-06
4 *135:A P[0] 2.12457e-05
5 *4:17 P[0] 2.79122e-05
*RES
1 *137:X P[0] 47.1648 
*END

*D_NET *6 0.000687039
*CONN
*P P[1] O
*I *138:X O *D sky130_fd_sc_hd__buf_2
*CAP
1 P[1] 0.000267094
2 *138:X 0.000267094
3 P[1] P[2] 8.73764e-05
4 P[1] *15:12 6.54744e-05
*RES
1 *138:X P[1] 48.5734 
*END

*D_NET *7 0.000615035
*CONN
*P P[2] O
*I *139:X O *D sky130_fd_sc_hd__buf_2
*CAP
1 P[2] 0.000223522
2 *139:X 0.000223522
3 P[2] P[3] 8.06147e-05
4 P[1] P[2] 8.73764e-05
*RES
1 *139:X P[2] 47.8691 
*END

*D_NET *8 0.00052467
*CONN
*P P[3] O
*I *115:LO O *D sky130_fd_sc_hd__conb_1
*CAP
1 P[3] 0.000222028
2 *115:LO 0.000222028
3 P[2] P[3] 8.06147e-05
*RES
1 *115:LO P[3] 47.7832 
*END

*D_NET *11 0.000584497
*CONN
*I *130:B I *D sky130_fd_sc_hd__and2_1
*I *134:X O *D sky130_fd_sc_hd__clkbuf_1
*CAP
1 *130:B 0
2 *134:X 0.000292248
3 *11:10 0.000292248
*RES
1 *134:X *11:10 28.4271 
2 *11:10 *130:B 23 
*END

*D_NET *12 0.00115309
*CONN
*I *128:A I *D sky130_fd_sc_hd__inv_2
*I *129:A I *D sky130_fd_sc_hd__and2_1
*I *135:X O *D sky130_fd_sc_hd__buf_1
*CAP
1 *128:A 0
2 *129:A 0.000149867
3 *135:X 0.000426678
4 *12:10 0.000576545
5 *129:A *14:10 0
6 *129:A *19:10 0
*RES
1 *135:X *12:10 44.2143 
2 *12:10 *129:A 40.61 
3 *12:10 *128:A 38 
*END

*D_NET *13 0.000991522
*CONN
*I *129:B I *D sky130_fd_sc_hd__and2_1
*I *130:A I *D sky130_fd_sc_hd__and2_1
*I *136:X O *D sky130_fd_sc_hd__clkbuf_1
*CAP
1 *129:B 6.98809e-05
2 *130:A 0
3 *136:X 0.000174805
4 *13:14 0.000178632
5 *13:8 0.000423318
6 *129:B *133:A 0
7 *129:B *14:10 3.71369e-05
8 *13:8 *14:10 0.000107748
*RES
1 *136:X *13:8 26.9771 
2 *13:8 *13:14 32.9621 
3 *13:14 *130:A 23 
4 *13:8 *129:B 24.595 
*END

*D_NET *14 0.0011483
*CONN
*I *137:A I *D sky130_fd_sc_hd__buf_2
*I *131:X O *D sky130_fd_sc_hd__clkbuf_1
*CAP
1 *137:A 0
2 *131:X 0.000468424
3 *14:10 0.000468424
4 *14:10 *133:A 5.67058e-05
5 P[0] *14:10 9.86551e-06
6 *129:A *14:10 0
7 *129:B *14:10 3.71369e-05
8 *13:8 *14:10 0.000107748
*RES
1 *131:X *14:10 45.2914 
2 *14:10 *137:A 38 
*END

*D_NET *15 0.0034479
*CONN
*I *138:A I *D sky130_fd_sc_hd__buf_2
*I *132:X O *D sky130_fd_sc_hd__clkbuf_1
*CAP
1 *138:A 0
2 *132:X 0.0015414
3 *15:12 0.000149813
4 *15:6 0.00169122
5 P[1] *15:12 6.54744e-05
*RES
1 *132:X *15:6 48.8721 
2 *15:6 *15:12 33.3143 
3 *15:12 *138:A 23 
*END

*D_NET *16 0.00309781
*CONN
*I *139:A I *D sky130_fd_sc_hd__buf_2
*I *133:X O *D sky130_fd_sc_hd__clkbuf_1
*CAP
1 *139:A 0
2 *133:X 0.0015489
3 *16:10 0.0015489
*RES
1 *133:X *16:10 49.8664 
2 *16:10 *139:A 23 
*END

*D_NET *17 0.000374345
*CONN
*I *133:A I *D sky130_fd_sc_hd__clkbuf_1
*I *129:X O *D sky130_fd_sc_hd__and2_1
*CAP
1 *133:A 0.00015882
2 *129:X 0.00015882
3 *129:B *133:A 0
4 *14:10 *133:A 5.67058e-05
*RES
1 *129:X *133:A 49.0243 
*END

*D_NET *18 0.000615407
*CONN
*I *132:A I *D sky130_fd_sc_hd__clkbuf_1
*I *130:X O *D sky130_fd_sc_hd__and2_1
*CAP
1 *132:A 0
2 *130:X 0.000307703
3 *18:10 0.000307703
*RES
1 *130:X *18:10 42.4329 
2 *18:10 *132:A 38 
*END

*D_NET *19 0.000628431
*CONN
*I *131:A I *D sky130_fd_sc_hd__clkbuf_1
*I *128:Y O *D sky130_fd_sc_hd__inv_2
*CAP
1 *131:A 0
2 *128:Y 0.000314215
3 *19:10 0.000314215
4 *129:A *19:10 0
*RES
1 *128:Y *19:10 42.4329 
2 *19:10 *131:A 38 
*END
