*SPEF "ieee 1481-1999"
*DESIGN "mult4_SARSA_RUIDO_e9_SARSANPASOS_VENTAJA_RUIDO_e8_SARSA_RUIDO_e9_SARSA_RUIDO_e9"
*DATE "14:23:49 Tuesday September 16, 2025"
*VENDOR "The OpenROAD Project"
*PROGRAM "OpenROAD"
*VERSION "edf00dff99f6c40d67a30c0e22a8191c5d2ed9d6"
*DESIGN_FLOW "NAME_SCOPE LOCAL" "PIN_CAP NONE"
*DIVIDER /
*DELIMITER :
*BUS_DELIMITER []
*T_UNIT 1 NS
*C_UNIT 1 PF
*R_UNIT 1 OHM
*L_UNIT 1 HENRY

*NAME_MAP
*1 A[0]
*2 A[1]
*3 A[2]
*4 A[3]
*5 B[0]
*6 B[1]
*7 B[2]
*8 B[3]
*9 P[0]
*10 P[1]
*11 P[2]
*12 P[3]
*13 P[4]
*14 P[5]
*15 P[6]
*16 P[7]
*19 _00_
*20 _01_
*21 _02_
*22 _03_
*23 _04_
*24 _05_
*25 _06_
*26 _07_
*27 _08_
*28 _09_
*29 _10_
*30 _11_
*31 _12_
*32 _13_
*33 _14_
*34 _15_
*35 _16_
*36 _17_
*37 _18_
*38 _19_
*39 _20_
*40 _21_
*41 _22_
*42 _23_
*43 mul_ll\.pp1
*44 mul_ll\.pp2
*45 net1
*46 net10
*47 net11
*48 net12
*49 net13
*50 net14
*51 net15
*52 net16
*53 net2
*54 net3
*55 net4
*56 net5
*57 net6
*58 net7
*59 net8
*60 net9
*61 FILLER_0_15
*62 FILLER_0_27
*63 FILLER_0_29
*64 FILLER_0_3
*65 FILLER_0_34
*66 FILLER_0_42
*67 FILLER_0_48
*68 FILLER_0_55
*69 FILLER_0_57
*70 FILLER_0_69
*71 FILLER_1_15
*72 FILLER_1_27
*73 FILLER_1_3
*74 FILLER_1_41
*75 FILLER_1_45
*76 FILLER_1_49
*77 FILLER_1_55
*78 FILLER_1_57
*79 FILLER_1_69
*80 FILLER_2_15
*81 FILLER_2_25
*82 FILLER_2_29
*83 FILLER_2_41
*84 FILLER_2_49
*85 FILLER_2_57
*86 FILLER_2_69
*87 FILLER_2_7
*88 FILLER_3_11
*89 FILLER_3_16
*90 FILLER_3_3
*91 FILLER_3_34
*92 FILLER_3_46
*93 FILLER_3_54
*94 FILLER_3_66
*95 FILLER_3_78
*96 FILLER_4_22
*97 FILLER_4_34
*98 FILLER_4_46
*99 FILLER_4_57
*100 FILLER_4_69
*101 FILLER_4_7
*102 FILLER_4_77
*103 FILLER_5_18
*104 FILLER_5_25
*105 FILLER_5_37
*106 FILLER_5_45
*107 FILLER_5_6
*108 FILLER_5_64
*109 FILLER_5_76
*110 FILLER_6_13
*111 FILLER_6_21
*112 FILLER_6_34
*113 FILLER_6_46
*114 FILLER_6_62
*115 FILLER_6_74
*116 FILLER_7_27
*117 FILLER_7_36
*118 FILLER_7_48
*119 FILLER_7_54
*120 FILLER_7_57
*121 FILLER_7_69
*122 FILLER_7_7
*123 FILLER_8_15
*124 FILLER_8_27
*125 FILLER_8_29
*126 FILLER_8_3
*127 FILLER_8_41
*128 FILLER_8_45
*129 FILLER_8_58
*130 FILLER_8_70
*131 FILLER_8_78
*132 FILLER_9_15
*133 FILLER_9_27
*134 FILLER_9_29
*135 FILLER_9_3
*136 FILLER_9_35
*137 FILLER_9_47
*138 FILLER_9_51
*139 FILLER_9_57
*140 FILLER_9_63
*141 FILLER_9_75
*142 PHY_EDGE_ROW_0_Left_10
*143 PHY_EDGE_ROW_0_Right_0
*144 PHY_EDGE_ROW_1_Left_11
*145 PHY_EDGE_ROW_1_Right_1
*146 PHY_EDGE_ROW_2_Left_12
*147 PHY_EDGE_ROW_2_Right_2
*148 PHY_EDGE_ROW_3_Left_13
*149 PHY_EDGE_ROW_3_Right_3
*150 PHY_EDGE_ROW_4_Left_14
*151 PHY_EDGE_ROW_4_Right_4
*152 PHY_EDGE_ROW_5_Left_15
*153 PHY_EDGE_ROW_5_Right_5
*154 PHY_EDGE_ROW_6_Left_16
*155 PHY_EDGE_ROW_6_Right_6
*156 PHY_EDGE_ROW_7_Left_17
*157 PHY_EDGE_ROW_7_Right_7
*158 PHY_EDGE_ROW_8_Left_18
*159 PHY_EDGE_ROW_8_Right_8
*160 PHY_EDGE_ROW_9_Left_19
*161 PHY_EDGE_ROW_9_Right_9
*162 TAP_TAPCELL_ROW_0_20
*163 TAP_TAPCELL_ROW_0_21
*164 TAP_TAPCELL_ROW_1_22
*165 TAP_TAPCELL_ROW_2_23
*166 TAP_TAPCELL_ROW_3_24
*167 TAP_TAPCELL_ROW_4_25
*168 TAP_TAPCELL_ROW_5_26
*169 TAP_TAPCELL_ROW_6_27
*170 TAP_TAPCELL_ROW_7_28
*171 TAP_TAPCELL_ROW_8_29
*172 TAP_TAPCELL_ROW_9_30
*173 TAP_TAPCELL_ROW_9_31
*174 _24_
*175 _25_
*176 _26_
*177 _27_
*178 _28_
*179 _29_
*180 _30_
*181 _31_
*182 _32_
*183 _33_
*184 _34_
*185 _35_
*186 _36_
*187 _37_
*188 _38_
*189 _39_
*190 _40_
*191 _41_
*192 _42_
*193 _43_
*194 _44_
*195 _45_
*196 _46_
*197 _47_
*198 _48_
*199 _49_
*200 _50_
*201 _51_
*202 _52_
*203 _53_
*204 _54_
*205 _55_
*206 _56_
*207 _57_
*208 input1
*209 input2
*210 input3
*211 input4
*212 input5
*213 input6
*214 input7
*215 input8
*216 output10
*217 output11
*218 output12
*219 output13
*220 output14
*221 output15
*222 output16
*223 output9

*PORTS
A[0] I
A[1] I
A[2] I
A[3] I
B[0] I
B[1] I
B[2] I
B[3] I
P[0] O
P[1] O
P[2] O
P[3] O
P[4] O
P[5] O
P[6] O
P[7] O

*D_NET *1 0.000786235
*CONN
*P A[0] I
*I *208:A I *D sky130_fd_sc_hd__clkbuf_1
*CAP
1 A[0] 0.000393118
2 *208:A 0.000393118
3 *208:A P[0] 0
*RES
1 A[0] *208:A 10.35 
*END

*D_NET *2 0.000598682
*CONN
*P A[1] I
*I *209:A I *D sky130_fd_sc_hd__buf_1
*CAP
1 A[1] 0.000215233
2 *209:A 0.000215233
3 *209:A P[2] 8.53361e-05
4 *209:A *214:A 8.28789e-05
*RES
1 A[1] *209:A 6.37677 
*END

*D_NET *3 0.000787639
*CONN
*P A[2] I
*I *210:A I *D sky130_fd_sc_hd__buf_1
*CAP
1 A[2] 0.000384627
2 *210:A 0.000384627
3 *210:A *212:A 0
4 *210:A *54:10 1.83847e-05
*RES
1 A[2] *210:A 10.35 
*END

*D_NET *4 0.000476376
*CONN
*P A[3] I
*I *211:A I *D sky130_fd_sc_hd__buf_1
*CAP
1 A[3] 0.000196748
2 *211:A 0.000196748
3 *211:A *214:A 8.28789e-05
*RES
1 A[3] *211:A 5.35677 
*END

*D_NET *5 0.000771371
*CONN
*P B[0] I
*I *212:A I *D sky130_fd_sc_hd__clkbuf_1
*CAP
1 B[0] 0.000385685
2 *212:A 0.000385685
3 *212:A P[0] 0
4 *212:A *223:A 0
5 *210:A *212:A 0
*RES
1 B[0] *212:A 10.455 
*END

*D_NET *6 0.000623243
*CONN
*P B[1] I
*I *213:A I *D sky130_fd_sc_hd__buf_1
*CAP
1 B[1] 0.00028255
2 *213:A 0.00028255
3 *213:A P[1] 2.96366e-05
4 *213:A *215:A 2.85068e-05
*RES
1 B[1] *213:A 7.5993 
*END

*D_NET *7 0.0005771
*CONN
*P B[2] I
*I *214:A I *D sky130_fd_sc_hd__buf_1
*CAP
1 B[2] 0.000205671
2 *214:A 0.000205671
3 *209:A *214:A 8.28789e-05
4 *211:A *214:A 8.28789e-05
*RES
1 B[2] *214:A 6.12177 
*END

*D_NET *8 0.000503623
*CONN
*P B[3] I
*I *215:A I *D sky130_fd_sc_hd__dlymetal6s2s_1
*CAP
1 B[3] 0.000221853
2 *215:A 0.000221853
3 *215:A P[4] 3.14094e-05
4 *213:A *215:A 2.85068e-05
*RES
1 B[3] *215:A 5.35677 
*END

*D_NET *9 0.000877347
*CONN
*P P[0] O
*I *223:X O *D sky130_fd_sc_hd__buf_2
*CAP
1 P[0] 0.000438674
2 *223:X 0.000438674
3 *208:A P[0] 0
4 *212:A P[0] 0
*RES
1 *223:X P[0] 10.53 
*END

*D_NET *10 0.000712316
*CONN
*P P[1] O
*I *216:X O *D sky130_fd_sc_hd__buf_2
*CAP
1 P[1] 0.000326521
2 *216:X 0.000326521
3 P[1] P[3] 2.96366e-05
4 P[1] *216:A 0
5 *213:A P[1] 2.96366e-05
*RES
1 *216:X P[1] 7.6893 
*END

*D_NET *11 0.000481514
*CONN
*P P[2] O
*I *217:X O *D sky130_fd_sc_hd__buf_2
*CAP
1 P[2] 0.000198089
2 *217:X 0.000198089
3 *209:A P[2] 8.53361e-05
*RES
1 *217:X P[2] 5.16003 
*END

*D_NET *12 0.000590485
*CONN
*P P[3] O
*I *218:X O *D sky130_fd_sc_hd__buf_2
*CAP
1 P[3] 0.000280424
2 *218:X 0.000280424
3 P[1] P[3] 2.96366e-05
*RES
1 *218:X P[3] 7.1793 
*END

*D_NET *13 0.000658473
*CONN
*P P[4] O
*I *219:X O *D sky130_fd_sc_hd__buf_2
*CAP
1 P[4] 0.000313532
2 *219:X 0.000313532
3 *215:A P[4] 3.14094e-05
*RES
1 *219:X P[4] 7.1793 
*END

*D_NET *14 0.000949794
*CONN
*P P[5] O
*I *220:X O *D sky130_fd_sc_hd__buf_2
*CAP
1 P[5] 0.000474897
2 *220:X 0.000474897
*RES
1 *220:X P[5] 11.655 
*END

*D_NET *15 0.000894056
*CONN
*P P[6] O
*I *221:X O *D sky130_fd_sc_hd__buf_2
*CAP
1 P[6] 0.000447028
2 *221:X 0.000447028
3 P[6] P[7] 0
*RES
1 *221:X P[6] 11.55 
*END

*D_NET *16 0.00085605
*CONN
*P P[7] O
*I *222:X O *D sky130_fd_sc_hd__buf_2
*CAP
1 P[7] 0.000428025
2 *222:X 0.000428025
3 P[6] P[7] 0
*RES
1 *222:X P[7] 11.205 
*END

*D_NET *19 0.00127486
*CONN
*I *180:A I *D sky130_fd_sc_hd__xnor2_1
*I *191:A1 I *D sky130_fd_sc_hd__o21bai_1
*I *176:Y O *D sky130_fd_sc_hd__nand2_1
*CAP
1 *180:A 0.000261295
2 *191:A1 2.08101e-05
3 *176:Y 0.000119321
4 *19:12 0.000401426
5 *180:A *179:B 7.07032e-05
6 *180:A *180:B 3.26889e-05
7 *180:A *33:6 0.000114912
8 *19:12 *33:6 0.000160635
9 *19:12 *54:19 9.30717e-05
*RES
1 *176:Y *19:12 8.21 
2 *19:12 *191:A1 1.96 
3 *19:12 *180:A 6.235 
*END

*D_NET *20 0.0013545
*CONN
*I *179:A I *D sky130_fd_sc_hd__nor2_1
*I *191:A2 I *D sky130_fd_sc_hd__o21bai_1
*I *177:Y O *D sky130_fd_sc_hd__a21oi_1
*CAP
1 *179:A 0.000202287
2 *191:A2 0.000354784
3 *177:Y 0
4 *20:4 0.000557072
5 *179:A *58:23 4.05674e-06
6 *191:A2 *178:A 1.61831e-05
7 *191:A2 *178:B 4.82863e-05
8 *191:A2 *178:C 6.80922e-05
9 *191:A2 *21:12 7.70786e-05
10 *191:A2 *54:19 0
11 *191:A2 *58:23 2.66586e-05
*RES
1 *177:Y *20:4 1.6 
2 *20:4 *191:A2 11.735 
3 *20:4 *179:A 8.63 
*END

*D_NET *21 0.000957288
*CONN
*I *191:B1_N I *D sky130_fd_sc_hd__o21bai_1
*I *179:B I *D sky130_fd_sc_hd__nor2_1
*I *178:X O *D sky130_fd_sc_hd__and3_1
*CAP
1 *191:B1_N 0
2 *179:B 0.000217543
3 *178:X 8.44698e-05
4 *21:12 0.000302013
5 *179:B *180:B 0.000175442
6 *179:B *217:A 3.00381e-05
7 *180:A *179:B 7.07032e-05
8 *191:A2 *21:12 7.70786e-05
*RES
1 *178:X *21:12 6.92 
2 *21:12 *179:B 6.235 
3 *21:12 *191:B1_N 1.6 
*END

*D_NET *22 0.000450145
*CONN
*I *180:B I *D sky130_fd_sc_hd__xnor2_1
*I *179:Y O *D sky130_fd_sc_hd__nor2_1
*CAP
1 *180:B 0.000112915
2 *179:Y 0.000112915
3 *180:B *217:A 1.61831e-05
4 *179:B *180:B 0.000175442
5 *180:A *180:B 3.26889e-05
*RES
1 *179:Y *180:B 5.645 
*END

*D_NET *23 0.000772789
*CONN
*I *186:A I *D sky130_fd_sc_hd__xnor2_1
*I *181:Y O *D sky130_fd_sc_hd__nand2_1
*CAP
1 *186:A 0.000209838
2 *181:Y 0.000209838
3 *186:A *184:A1 4.82919e-05
4 *186:A *184:B1 1.47256e-05
5 *186:A *185:B 6.10941e-05
6 *186:A *196:A3 4.43871e-06
7 *186:A *57:40 8.40213e-05
8 *186:A *57:55 2.20223e-05
9 *186:A *59:40 0.00011852
*RES
1 *181:Y *186:A 10.755 
*END

*D_NET *24 0.000451132
*CONN
*I *203:A I *D sky130_fd_sc_hd__xnor2_1
*I *182:Y O *D sky130_fd_sc_hd__nand2_1
*CAP
1 *203:A 0.000126105
2 *182:Y 0.000126105
3 *203:A *202:A 7.4027e-05
4 *203:A *202:B 0
5 *203:A *202:C 0.000124895
6 *203:A *203:B 0
7 *203:A *41:10 0
*RES
1 *182:Y *203:A 9.72 
*END

*D_NET *25 0.000993127
*CONN
*I *185:A_N I *D sky130_fd_sc_hd__and2b_1
*I *196:B1 I *D sky130_fd_sc_hd__a31o_1
*I *183:X O *D sky130_fd_sc_hd__and4_1
*CAP
1 *185:A_N 0.000120241
2 *196:B1 0.000160324
3 *183:X 0
4 *25:6 0.000280565
5 *185:A_N *184:B1 5.53249e-06
6 *185:A_N *185:B 5.20893e-05
7 *185:A_N *55:8 8.65961e-05
8 *185:A_N *55:10 3.50033e-05
9 *185:A_N *55:36 1.1561e-05
10 *196:B1 *184:B1 3.86607e-05
11 *196:B1 *185:B 5.53249e-06
12 *196:B1 *196:A3 0.000108756
13 *196:B1 *53:34 0
14 *196:B1 *58:40 8.8266e-05
15 *196:B1 *59:38 0
*RES
1 *183:X *25:6 3.6 
2 *25:6 *196:B1 7.05 
3 *25:6 *185:A_N 6.21 
*END

*D_NET *26 0.00103278
*CONN
*I *185:B I *D sky130_fd_sc_hd__and2b_1
*I *196:A3 I *D sky130_fd_sc_hd__a31o_1
*I *184:X O *D sky130_fd_sc_hd__a22o_1
*CAP
1 *185:B 0.000115925
2 *196:A3 0.000185096
3 *184:X 0
4 *26:6 0.000301021
5 *185:B *186:B 4.82919e-05
6 *185:B *55:36 0
7 *185:B *59:40 2.03321e-05
8 *196:A3 *181:A 9.27255e-06
9 *196:A3 *196:A2 2.75229e-05
10 *196:A3 *58:40 2.30292e-05
11 *196:A3 *59:38 3.68967e-05
12 *196:A3 *59:40 1.23244e-05
13 *196:A3 *59:68 2.11552e-05
14 *185:A_N *185:B 5.20893e-05
15 *186:A *185:B 6.10941e-05
16 *186:A *196:A3 4.43871e-06
17 *196:B1 *185:B 5.53249e-06
18 *196:B1 *196:A3 0.000108756
*RES
1 *184:X *26:6 3.6 
2 *26:6 *196:A3 7.605 
3 *26:6 *185:B 6.285 
*END

*D_NET *27 0.000140629
*CONN
*I *186:B I *D sky130_fd_sc_hd__xnor2_1
*I *185:X O *D sky130_fd_sc_hd__and2b_1
*CAP
1 *186:B 4.61685e-05
2 *185:X 4.61685e-05
3 *185:B *186:B 4.82919e-05
*RES
1 *185:X *186:B 3.995 
*END

*D_NET *28 0.00201703
*CONN
*I *201:A1 I *D sky130_fd_sc_hd__a221o_1
*I *193:B1 I *D sky130_fd_sc_hd__o21ai_1
*I *194:A I *D sky130_fd_sc_hd__or3_1
*I *186:Y O *D sky130_fd_sc_hd__xnor2_1
*CAP
1 *201:A1 0
2 *193:B1 8.18747e-05
3 *194:A 5.01673e-05
4 *186:Y 0.000331184
5 *28:21 0.000238759
6 *28:6 0.000538235
7 *193:B1 *193:A2 0.000107415
8 *193:B1 *199:B 4.66108e-05
9 *193:B1 *201:A2 7.79462e-05
10 *193:B1 *201:B1 2.75145e-05
11 *193:B1 *201:B2 2.73374e-05
12 *193:B1 *201:C1 3.74161e-05
13 *194:A *30:20 4.43467e-05
14 *194:A *37:14 2.04902e-05
15 *28:6 *194:C 0.000114852
16 *28:6 *37:14 0.000181479
17 *28:21 *201:A2 9.14049e-05
18 *28:21 *39:10 0
*RES
1 *186:Y *28:6 7.57 
2 *28:6 *194:A 2.665 
3 *28:6 *28:21 5.89 
4 *28:21 *193:B1 4.135 
5 *28:21 *201:A1 1.6 
*END

*D_NET *29 0.00286577
*CONN
*I *197:A I *D sky130_fd_sc_hd__nor2_1
*I *201:B2 I *D sky130_fd_sc_hd__a221o_1
*I *198:A I *D sky130_fd_sc_hd__and2_1
*I *188:B I *D sky130_fd_sc_hd__and2_1
*I *189:B I *D sky130_fd_sc_hd__nand2_1
*I *187:X O *D sky130_fd_sc_hd__and2_1
*CAP
1 *197:A 9.92139e-05
2 *201:B2 0.000225078
3 *198:A 1.7218e-05
4 *188:B 0
5 *189:B 3.18738e-05
6 *187:X 0.000120285
7 *29:37 0.000423177
8 *29:26 0.000201004
9 *29:17 0.000154633
10 *29:6 0.000221891
11 *197:A *197:B 0
12 *197:A *199:A 8.65961e-05
13 *197:A *200:A 0.000106655
14 *198:A *195:B 1.19928e-05
15 *198:A *30:20 1.08758e-05
16 *198:A *59:12 4.66108e-05
17 *201:B2 *199:B 1.91597e-05
18 *201:B2 *201:B1 0
19 *201:B2 *201:C1 2.75229e-05
20 *201:B2 *35:8 0.000161529
21 *29:6 *59:25 0.000201508
22 *29:17 *188:A 7.75325e-05
23 *29:17 *44:21 4.18603e-06
24 *29:17 *57:40 0
25 *29:17 *59:12 0.000119285
26 *29:26 *30:10 0.000116158
27 *29:26 *57:40 0
28 *29:26 *59:12 2.42236e-05
29 *29:37 *193:A1 0.000152127
30 *29:37 *195:B 7.07879e-05
31 *29:37 *197:B 0
32 *29:37 *200:A 5.33085e-05
33 *29:37 *30:10 5.4003e-05
34 *193:B1 *201:B2 2.73374e-05
*RES
1 *187:X *29:6 4.12 
2 *29:6 *189:B 2.05 
3 *29:6 *29:17 4.4 
4 *29:17 *188:B 3.6 
5 *29:17 *29:26 1.89 
6 *29:26 *198:A 4.05 
7 *29:26 *29:37 2.91 
8 *29:37 *201:B2 6.84375 
9 *29:37 *197:A 5.775 
*END

*D_NET *30 0.00206048
*CONN
*I *193:A1 I *D sky130_fd_sc_hd__o21ai_1
*I *194:B I *D sky130_fd_sc_hd__or3_1
*I *201:A2 I *D sky130_fd_sc_hd__a221o_1
*I *188:X O *D sky130_fd_sc_hd__and2_1
*CAP
1 *193:A1 5.89485e-05
2 *194:B 0
3 *201:A2 9.88946e-05
4 *188:X 0.000109999
5 *30:20 0.000241107
6 *30:10 0.00031116
7 *193:A1 *197:B 6.35535e-05
8 *201:A2 *193:A2 8.42917e-05
9 *201:A2 *201:B1 7.64666e-05
10 *201:A2 *39:10 0
11 *30:10 *197:B 1.94892e-05
12 *30:10 *57:40 4.82863e-05
13 *30:10 *59:12 9.37731e-05
14 *30:20 *195:B 0.000138808
15 *30:20 *197:B 4.82863e-05
16 *30:20 *37:14 0.000101389
17 *30:20 *59:12 1.91597e-05
18 *193:B1 *201:A2 7.79462e-05
19 *194:A *30:20 4.43467e-05
20 *198:A *30:20 1.08758e-05
21 *28:21 *201:A2 9.14049e-05
22 *29:26 *30:10 0.000116158
23 *29:37 *193:A1 0.000152127
24 *29:37 *30:10 5.4003e-05
*RES
1 *188:X *30:10 5.94 
2 *30:10 *30:20 5.945 
3 *30:20 *201:A2 8.25875 
4 *30:20 *194:B 1.6 
5 *30:10 *193:A1 5.49 
*END

*D_NET *31 0.00131314
*CONN
*I *192:A I *D sky130_fd_sc_hd__and3_1
*I *204:A1 I *D sky130_fd_sc_hd__a21oi_1
*I *189:Y O *D sky130_fd_sc_hd__nand2_1
*CAP
1 *192:A 0.000120065
2 *204:A1 0.000122404
3 *189:Y 0.000102965
4 *31:12 0.000345434
5 *192:A *190:A1 3.09179e-05
6 *192:A *190:A2 0.00012657
7 *204:A1 *190:B1 3.09164e-05
8 *204:A1 *192:C 0
9 *204:A1 *204:A2 0
10 *204:A1 *45:20 0.000204463
11 *204:A1 *57:12 0
12 *31:12 *174:B 8.65905e-05
13 *31:12 *190:A1 1.19928e-05
14 *31:12 *190:B1 0
15 *31:12 *44:6 4.82919e-05
16 *31:12 *44:21 7.23602e-05
17 *31:12 *57:12 1.01661e-05
*RES
1 *189:Y *31:12 7.865 
2 *31:12 *204:A1 8.255 
3 *31:12 *192:A 3.775 
*END

*D_NET *32 0.000765235
*CONN
*I *192:B I *D sky130_fd_sc_hd__and3_1
*I *204:A2 I *D sky130_fd_sc_hd__a21oi_1
*I *190:X O *D sky130_fd_sc_hd__a22o_1
*CAP
1 *192:B 9.19792e-05
2 *204:A2 0.000109385
3 *190:X 0
4 *32:4 0.000201365
5 *192:B *190:A2 4.80182e-05
6 *204:A2 *192:C 5.21627e-05
7 *204:A2 *204:B1 9.91257e-05
8 *204:A2 *205:A 0.000163199
9 *204:A1 *204:A2 0
*RES
1 *190:X *32:4 1.6 
2 *32:4 *204:A2 8.72 
3 *32:4 *192:B 2.74 
*END

*D_NET *33 0.00293251
*CONN
*I *192:C I *D sky130_fd_sc_hd__and3_1
*I *204:B1 I *D sky130_fd_sc_hd__a21oi_1
*I *191:Y O *D sky130_fd_sc_hd__o21bai_1
*CAP
1 *192:C 0.00016415
2 *204:B1 0.00028612
3 *191:Y 0.000677049
4 *33:6 0.00112732
5 *192:C *190:A2 1.70906e-05
6 *192:C *190:B1 0
7 *192:C *205:A 0.000116853
8 *192:C *34:29 0
9 *192:C *45:20 0
10 *204:B1 *205:A 9.93237e-05
11 *33:6 *205:A 1.77665e-05
12 *180:A *33:6 0.000114912
13 *204:A1 *192:C 0
14 *204:A2 *192:C 5.21627e-05
15 *204:A2 *204:B1 9.91257e-05
16 *19:12 *33:6 0.000160635
*RES
1 *191:Y *33:6 9.64 
2 *33:6 *204:B1 5.515 
3 *33:6 *192:C 8.93 
*END

*D_NET *34 0.00435854
*CONN
*I *201:B1 I *D sky130_fd_sc_hd__a221o_1
*I *193:A2 I *D sky130_fd_sc_hd__o21ai_1
*I *194:C I *D sky130_fd_sc_hd__or3_1
*I *205:A I *D sky130_fd_sc_hd__nor2_1
*I *192:X O *D sky130_fd_sc_hd__and3_1
*CAP
1 *201:B1 0.000118429
2 *193:A2 0.000276969
3 *194:C 3.78589e-05
4 *205:A 0.000329621
5 *192:X 0
6 *34:44 0.000638418
7 *34:29 0.000852468
8 *34:4 0.00090121
9 *193:A2 *199:B 3.29924e-05
10 *194:C *37:14 0.000197822
11 *205:A *190:A2 1.77686e-05
12 *205:A *205:B 5.94962e-05
13 *34:29 *181:A 0
14 *34:29 *181:B 0
15 *34:29 *190:A2 7.52017e-05
16 *34:29 *54:19 0
17 *34:29 *54:30 0
18 *34:44 *41:10 1.26046e-05
19 *192:C *205:A 0.000116853
20 *192:C *34:29 0
21 *193:B1 *193:A2 0.000107415
22 *193:B1 *201:B1 2.75145e-05
23 *201:A2 *193:A2 8.42917e-05
24 *201:A2 *201:B1 7.64666e-05
25 *201:B2 *201:B1 0
26 *204:A2 *205:A 0.000163199
27 *204:B1 *205:A 9.93237e-05
28 *28:6 *194:C 0.000114852
29 *33:6 *205:A 1.77665e-05
*RES
1 *192:X *34:4 1.6 
2 *34:4 *205:A 12.14 
3 *34:4 *34:29 10.565 
4 *34:29 *194:C 5.43 
5 *34:29 *34:44 5.12 
6 *34:44 *193:A2 5.155 
7 *34:44 *201:B1 3.865 
*END

*D_NET *35 0.000974494
*CONN
*I *195:A I *D sky130_fd_sc_hd__and2_1
*I *200:A I *D sky130_fd_sc_hd__xnor2_1
*I *193:Y O *D sky130_fd_sc_hd__o21ai_1
*CAP
1 *195:A 0
2 *200:A 0.000127036
3 *193:Y 7.27333e-05
4 *35:8 0.00019977
5 *200:A *195:B 9.50342e-06
6 *200:A *199:A 8.65905e-05
7 *200:A *200:B 0
8 *35:8 *199:B 0.000157368
9 *197:A *200:A 0.000106655
10 *201:B2 *35:8 0.000161529
11 *29:37 *200:A 5.33085e-05
*RES
1 *193:Y *35:8 3.79 
2 *35:8 *200:A 8.285 
3 *35:8 *195:A 1.6 
*END

*D_NET *36 0.000929421
*CONN
*I *195:B I *D sky130_fd_sc_hd__and2_1
*I *194:X O *D sky130_fd_sc_hd__or3_1
*CAP
1 *195:B 0.000336634
2 *194:X 0.000336634
3 *195:B *199:A 0
4 *195:B *59:12 2.50602e-05
5 *198:A *195:B 1.19928e-05
6 *200:A *195:B 9.50342e-06
7 *29:37 *195:B 7.07879e-05
8 *30:20 *195:B 0.000138808
*RES
1 *194:X *195:B 12.045 
*END

*D_NET *37 0.00283785
*CONN
*I *197:B I *D sky130_fd_sc_hd__nor2_1
*I *198:B I *D sky130_fd_sc_hd__and2_1
*I *196:X O *D sky130_fd_sc_hd__a31o_1
*CAP
1 *197:B 0.000222825
2 *198:B 0
3 *196:X 0.000651908
4 *37:14 0.000874733
5 *197:B *39:10 0.000157595
6 *37:14 *181:A 0.000151959
7 *37:14 *59:38 5.80335e-05
8 *37:14 *59:40 8.82856e-05
9 *193:A1 *197:B 6.35535e-05
10 *194:A *37:14 2.04902e-05
11 *194:C *37:14 0.000197822
12 *197:A *197:B 0
13 *28:6 *37:14 0.000181479
14 *29:37 *197:B 0
15 *30:10 *197:B 1.94892e-05
16 *30:20 *197:B 4.82863e-05
17 *30:20 *37:14 0.000101389
*RES
1 *196:X *37:14 17.855 
2 *37:14 *198:B 1.6 
3 *37:14 *197:B 10.235 
*END

*D_NET *38 0.000955484
*CONN
*I *199:A I *D sky130_fd_sc_hd__nor2_1
*I *197:Y O *D sky130_fd_sc_hd__nor2_1
*CAP
1 *199:A 0.000334935
2 *197:Y 0.000334935
3 *199:A *200:B 0.000112428
4 *195:B *199:A 0
5 *197:A *199:A 8.65961e-05
6 *200:A *199:A 8.65905e-05
*RES
1 *197:Y *199:A 12.6 
*END

*D_NET *39 0.00114623
*CONN
*I *201:C1 I *D sky130_fd_sc_hd__a221o_1
*I *199:B I *D sky130_fd_sc_hd__nor2_1
*I *198:X O *D sky130_fd_sc_hd__and2_1
*CAP
1 *201:C1 1.01446e-05
2 *199:B 0.000208304
3 *198:X 9.03513e-05
4 *39:10 0.0003088
5 *199:B *219:A 4.99619e-05
6 *193:A2 *199:B 3.29924e-05
7 *193:B1 *199:B 4.66108e-05
8 *193:B1 *201:C1 3.74161e-05
9 *197:B *39:10 0.000157595
10 *201:A2 *39:10 0
11 *201:B2 *199:B 1.91597e-05
12 *201:B2 *201:C1 2.75229e-05
13 *28:21 *39:10 0
14 *35:8 *199:B 0.000157368
*RES
1 *198:X *39:10 7.49 
2 *39:10 *199:B 6.085 
3 *39:10 *201:C1 2.05 
*END

*D_NET *40 0.000371328
*CONN
*I *200:B I *D sky130_fd_sc_hd__xnor2_1
*I *199:Y O *D sky130_fd_sc_hd__nor2_1
*CAP
1 *200:B 0.00012945
2 *199:Y 0.00012945
3 *199:A *200:B 0.000112428
4 *200:A *200:B 0
*RES
1 *199:Y *200:B 9.63 
*END

*D_NET *41 0.00155993
*CONN
*I *203:B I *D sky130_fd_sc_hd__xnor2_1
*I *202:C I *D sky130_fd_sc_hd__and3_1
*I *201:X O *D sky130_fd_sc_hd__a221o_1
*CAP
1 *203:B 3.70895e-05
2 *202:C 0.000130259
3 *201:X 0.000465186
4 *41:10 0.000632534
5 *202:C *202:A 0.000110795
6 *202:C *221:A 4.65705e-05
7 *203:B *202:B 0
8 *203:A *202:C 0.000124895
9 *203:A *203:B 0
10 *203:A *41:10 0
11 *34:44 *41:10 1.26046e-05
*RES
1 *201:X *41:10 8.97 
2 *41:10 *202:C 6.345 
3 *41:10 *203:B 4.215 
*END

*D_NET *42 0.000266763
*CONN
*I *205:B I *D sky130_fd_sc_hd__nor2_1
*I *204:Y O *D sky130_fd_sc_hd__a21oi_1
*CAP
1 *205:B 8.86143e-05
2 *204:Y 8.86143e-05
3 *205:B *218:A 3.00381e-05
4 *205:A *205:B 5.94962e-05
*RES
1 *204:Y *205:B 5.06 
*END

*D_NET *43 0.000220676
*CONN
*I *206:A I *D sky130_fd_sc_hd__clkbuf_1
*I *175:X O *D sky130_fd_sc_hd__and2_1
*CAP
1 *206:A 4.75681e-05
2 *175:X 4.75681e-05
3 *206:A *175:B 0.000125539
*RES
1 *175:X *206:A 4.34 
*END

*D_NET *44 0.00110699
*CONN
*I *188:A I *D sky130_fd_sc_hd__and2_1
*I *189:A I *D sky130_fd_sc_hd__nand2_1
*I *207:A I *D sky130_fd_sc_hd__clkbuf_1
*I *174:X O *D sky130_fd_sc_hd__and2_1
*CAP
1 *188:A 8.5741e-05
2 *189:A 0
3 *207:A 0.000144468
4 *174:X 5.91517e-05
5 *44:21 0.000128194
6 *44:6 0.000246073
7 *188:A *57:12 7.34286e-05
8 *188:A *57:40 5.80603e-05
9 *207:A *174:B 7.00889e-06
10 *207:A *190:A1 1.90693e-05
11 *44:6 *174:B 1.60203e-05
12 *44:21 *190:B1 0
13 *44:21 *57:12 6.74079e-05
14 *44:21 *59:12 0
15 *29:17 *188:A 7.75325e-05
16 *29:17 *44:21 4.18603e-06
17 *31:12 *44:6 4.82919e-05
18 *31:12 *44:21 7.23602e-05
*RES
1 *174:X *44:6 2.395 
2 *44:6 *207:A 3.805 
3 *44:6 *44:21 3.38 
4 *44:21 *189:A 3.6 
5 *44:21 *188:A 6.195 
*END

*D_NET *45 0.00178585
*CONN
*I *175:A I *D sky130_fd_sc_hd__and2_1
*I *190:B2 I *D sky130_fd_sc_hd__a22o_1
*I *174:B I *D sky130_fd_sc_hd__and2_1
*I *208:X O *D sky130_fd_sc_hd__clkbuf_1
*CAP
1 *175:A 3.11602e-05
2 *190:B2 0
3 *174:B 2.40777e-05
4 *208:X 0.000134595
5 *45:20 0.000536763
6 *45:12 0.00067844
7 *174:B *190:A1 6.67269e-05
8 *45:20 *57:12 0
9 *192:C *45:20 0
10 *204:A1 *45:20 0.000204463
11 *207:A *174:B 7.00889e-06
12 *31:12 *174:B 8.65905e-05
13 *44:6 *174:B 1.60203e-05
*RES
1 *208:X *45:12 7.43 
2 *45:12 *45:20 11.995 
3 *45:20 *174:B 2.74 
4 *45:20 *190:B2 1.6 
5 *45:12 *175:A 2.05 
*END

*D_NET *46 0.000634029
*CONN
*I *216:A I *D sky130_fd_sc_hd__buf_2
*I *207:X O *D sky130_fd_sc_hd__clkbuf_1
*CAP
1 *216:A 0.000317014
2 *207:X 0.000317014
3 P[1] *216:A 0
*RES
1 *207:X *216:A 11.1 
*END

*D_NET *47 0.000702373
*CONN
*I *217:A I *D sky130_fd_sc_hd__buf_2
*I *180:Y O *D sky130_fd_sc_hd__xnor2_1
*CAP
1 *217:A 0.000328076
2 *180:Y 0.000328076
3 *179:B *217:A 3.00381e-05
4 *180:B *217:A 1.61831e-05
*RES
1 *180:Y *217:A 8.06 
*END

*D_NET *48 0.000714497
*CONN
*I *218:A I *D sky130_fd_sc_hd__buf_2
*I *205:Y O *D sky130_fd_sc_hd__nor2_1
*CAP
1 *218:A 0.000342229
2 *205:Y 0.000342229
3 *205:B *218:A 3.00381e-05
*RES
1 *205:Y *218:A 8.15 
*END

*D_NET *49 0.00063197
*CONN
*I *219:A I *D sky130_fd_sc_hd__buf_2
*I *195:X O *D sky130_fd_sc_hd__and2_1
*CAP
1 *219:A 0.000291004
2 *195:X 0.000291004
3 *199:B *219:A 4.99619e-05
*RES
1 *195:X *219:A 7.805 
*END

*D_NET *50 0.000620842
*CONN
*I *220:A I *D sky130_fd_sc_hd__buf_2
*I *200:Y O *D sky130_fd_sc_hd__xnor2_1
*CAP
1 *220:A 0.000310421
2 *200:Y 0.000310421
*RES
1 *200:Y *220:A 11.955 
*END

*D_NET *51 0.000626766
*CONN
*I *221:A I *D sky130_fd_sc_hd__buf_2
*I *203:Y O *D sky130_fd_sc_hd__xnor2_1
*CAP
1 *221:A 0.000276044
2 *203:Y 0.000276044
3 *221:A *202:A 2.8108e-05
4 *221:A *202:B 0
5 *221:A *222:A 0
6 *202:C *221:A 4.65705e-05
*RES
1 *203:Y *221:A 11.61 
*END

*D_NET *52 0.000319732
*CONN
*I *222:A I *D sky130_fd_sc_hd__buf_2
*I *202:X O *D sky130_fd_sc_hd__and3_1
*CAP
1 *222:A 0.0001571
2 *202:X 0.0001571
3 *222:A *202:B 5.53249e-06
4 *221:A *222:A 0
*RES
1 *202:X *222:A 9.63 
*END

*D_NET *53 0.00288251
*CONN
*I *184:A1 I *D sky130_fd_sc_hd__a22o_1
*I *183:B I *D sky130_fd_sc_hd__and4_1
*I *177:A2 I *D sky130_fd_sc_hd__a21oi_1
*I *178:C I *D sky130_fd_sc_hd__and3_1
*I *209:X O *D sky130_fd_sc_hd__buf_1
*CAP
1 *184:A1 0.000187578
2 *183:B 0
3 *177:A2 0
4 *178:C 6.67762e-05
5 *209:X 0.000525191
6 *53:34 0.000335424
7 *53:12 0.000122128
8 *53:8 0.000728389
9 *178:C *178:A 4.82863e-05
10 *178:C *58:23 2.55587e-05
11 *184:A1 *183:C 0.000270426
12 *184:A1 *184:B1 1.91597e-05
13 *184:A1 *57:55 9.27255e-06
14 *53:12 *178:B 2.59981e-05
15 *53:12 *57:61 9.14049e-05
16 *53:12 *58:40 3.86607e-05
17 *53:34 *184:B1 1.0183e-05
18 *53:34 *57:55 2.75145e-05
19 *53:34 *57:61 0.000209179
20 *53:34 *58:40 2.4997e-05
21 *53:34 *59:38 0
22 *186:A *184:A1 4.82919e-05
23 *191:A2 *178:C 6.80922e-05
24 *196:B1 *53:34 0
*RES
1 *209:X *53:8 9.225 
2 *53:8 *53:12 3.38 
3 *53:12 *178:C 3.265 
4 *53:12 *177:A2 1.6 
5 *53:8 *53:34 5.36 
6 *53:34 *183:B 1.6 
7 *53:34 *184:A1 5.17 
*END

*D_NET *54 0.00458741
*CONN
*I *181:B I *D sky130_fd_sc_hd__nand2_1
*I *196:A2 I *D sky130_fd_sc_hd__a31o_1
*I *187:A I *D sky130_fd_sc_hd__and2_1
*I *190:A2 I *D sky130_fd_sc_hd__a22o_1
*I *176:B I *D sky130_fd_sc_hd__nand2_1
*I *210:X O *D sky130_fd_sc_hd__buf_1
*CAP
1 *181:B 0.000144245
2 *196:A2 7.50554e-05
3 *187:A 0.00021727
4 *190:A2 0.000441975
5 *176:B 0
6 *210:X 0.000268641
7 *54:32 0.000292325
8 *54:30 0.000251711
9 *54:19 0.000793621
10 *54:10 0.00051282
11 *181:B *181:A 0.000163019
12 *181:B *57:40 6.88277e-05
13 *181:B *57:55 1.94548e-05
14 *187:A *59:38 0.000573553
15 *196:A2 *181:A 2.30292e-05
16 *196:A2 *59:38 0.000148084
17 *54:10 *56:12 0.00011852
18 *54:30 *181:A 5.16348e-05
19 *191:A2 *54:19 0
20 *192:A *190:A2 0.00012657
21 *192:B *190:A2 4.80182e-05
22 *192:C *190:A2 1.70906e-05
23 *196:A3 *196:A2 2.75229e-05
24 *205:A *190:A2 1.77686e-05
25 *210:A *54:10 1.83847e-05
26 *19:12 *54:19 9.30717e-05
27 *34:29 *181:B 0
28 *34:29 *190:A2 7.52017e-05
29 *34:29 *54:19 0
30 *34:29 *54:30 0
*RES
1 *210:X *54:10 7.41 
2 *54:10 *176:B 3.6 
3 *54:10 *54:19 4.185 
4 *54:19 *190:A2 11.295 
5 *54:19 *54:30 1.89 
6 *54:30 *54:32 2 
7 *54:32 *187:A 6.88 
8 *54:32 *196:A2 3.43 
9 *54:30 *181:B 7.005 
*END

*D_NET *55 0.00322167
*CONN
*I *202:B I *D sky130_fd_sc_hd__and3_1
*I *182:B I *D sky130_fd_sc_hd__nand2_1
*I *183:D I *D sky130_fd_sc_hd__and4_1
*I *184:B1 I *D sky130_fd_sc_hd__a22o_1
*I *211:X O *D sky130_fd_sc_hd__buf_1
*CAP
1 *202:B 0.000152404
2 *182:B 5.4625e-05
3 *183:D 0
4 *184:B1 0.000136243
5 *211:X 0.000590437
6 *55:36 0.00048101
7 *55:10 0.000179272
8 *55:8 0.000907447
9 *184:B1 *183:C 0.00023301
10 *184:B1 *57:55 0.000212348
11 *202:B *202:A 4.49498e-05
12 *202:B *59:40 2.97004e-06
13 *55:36 *59:40 0
14 *184:A1 *184:B1 1.91597e-05
15 *185:A_N *184:B1 5.53249e-06
16 *185:A_N *55:8 8.65961e-05
17 *185:A_N *55:10 3.50033e-05
18 *185:A_N *55:36 1.1561e-05
19 *185:B *55:36 0
20 *186:A *184:B1 1.47256e-05
21 *196:B1 *184:B1 3.86607e-05
22 *203:A *202:B 0
23 *203:B *202:B 0
24 *221:A *202:B 0
25 *222:A *202:B 5.53249e-06
26 *53:34 *184:B1 1.0183e-05
*RES
1 *211:X *55:8 10.26 
2 *55:8 *55:10 0.87 
3 *55:10 *184:B1 7.695 
4 *55:10 *183:D 3.6 
5 *55:8 *55:36 6.395 
6 *55:36 *182:B 2.395 
7 *55:36 *202:B 8.255 
*END

*D_NET *56 0.000999305
*CONN
*I *176:A I *D sky130_fd_sc_hd__nand2_1
*I *175:B I *D sky130_fd_sc_hd__and2_1
*I *212:X O *D sky130_fd_sc_hd__clkbuf_1
*CAP
1 *176:A 2.08101e-05
2 *175:B 0.000263606
3 *212:X 9.32071e-05
4 *56:12 0.000377623
5 *56:12 *223:A 0
6 *206:A *175:B 0.000125539
7 *54:10 *56:12 0.00011852
*RES
1 *212:X *56:12 7.43 
2 *56:12 *175:B 5.86 
3 *56:12 *176:A 1.96 
*END

*D_NET *57 0.00597047
*CONN
*I *183:A I *D sky130_fd_sc_hd__and4_1
*I *177:A1 I *D sky130_fd_sc_hd__a21oi_1
*I *178:A I *D sky130_fd_sc_hd__and3_1
*I *184:B2 I *D sky130_fd_sc_hd__a22o_1
*I *174:A I *D sky130_fd_sc_hd__and2_1
*I *190:A1 I *D sky130_fd_sc_hd__a22o_1
*I *213:X O *D sky130_fd_sc_hd__buf_1
*CAP
1 *183:A 0
2 *177:A1 0
3 *178:A 1.87791e-05
4 *184:B2 0
5 *174:A 0
6 *190:A1 0.000266107
7 *213:X 0.000386564
8 *57:61 0.000116825
9 *57:55 0.00053028
10 *57:40 0.00129165
11 *57:12 0.000468325
12 *57:8 0.0014482
13 *178:A *58:23 8.40213e-05
14 *57:55 *183:C 1.61831e-05
15 *57:61 *58:12 0.000148968
16 *174:B *190:A1 6.67269e-05
17 *178:C *178:A 4.82863e-05
18 *181:B *57:40 6.88277e-05
19 *181:B *57:55 1.94548e-05
20 *184:A1 *57:55 9.27255e-06
21 *184:B1 *57:55 0.000212348
22 *186:A *57:40 8.40213e-05
23 *186:A *57:55 2.20223e-05
24 *188:A *57:12 7.34286e-05
25 *188:A *57:40 5.80603e-05
26 *191:A2 *178:A 1.61831e-05
27 *192:A *190:A1 3.09179e-05
28 *204:A1 *57:12 0
29 *207:A *190:A1 1.90693e-05
30 *29:17 *57:40 0
31 *29:26 *57:40 0
32 *30:10 *57:40 4.82863e-05
33 *31:12 *190:A1 1.19928e-05
34 *31:12 *57:12 1.01661e-05
35 *44:21 *57:12 6.74079e-05
36 *45:20 *57:12 0
37 *53:12 *57:61 9.14049e-05
38 *53:34 *57:55 2.75145e-05
39 *53:34 *57:61 0.000209179
*RES
1 *213:X *57:8 7.845 
2 *57:8 *57:12 5.675 
3 *57:12 *190:A1 6.16 
4 *57:12 *174:A 1.6 
5 *57:8 *57:40 14.63 
6 *57:40 *184:B2 1.6 
7 *57:40 *57:55 6.375 
8 *57:55 *57:61 7.42 
9 *57:61 *178:A 2.395 
10 *57:61 *177:A1 1.6 
11 *57:55 *183:A 1.6 
*END

*D_NET *58 0.00385823
*CONN
*I *196:A1 I *D sky130_fd_sc_hd__a31o_1
*I *181:A I *D sky130_fd_sc_hd__nand2_1
*I *178:B I *D sky130_fd_sc_hd__and3_1
*I *177:B1 I *D sky130_fd_sc_hd__a21oi_1
*I *214:X O *D sky130_fd_sc_hd__buf_1
*CAP
1 *196:A1 0
2 *181:A 0.000310155
3 *178:B 0.000133668
4 *177:B1 0
5 *214:X 0.000584495
6 *58:40 0.000496777
7 *58:23 0.000485492
8 *58:12 0.000749697
9 *181:A *59:38 0.000160536
10 *178:A *58:23 8.40213e-05
11 *178:C *58:23 2.55587e-05
12 *179:A *58:23 4.05674e-06
13 *181:B *181:A 0.000163019
14 *191:A2 *178:B 4.82863e-05
15 *191:A2 *58:23 2.66586e-05
16 *196:A2 *181:A 2.30292e-05
17 *196:A3 *181:A 9.27255e-06
18 *196:A3 *58:40 2.30292e-05
19 *196:B1 *58:40 8.8266e-05
20 *34:29 *181:A 0
21 *37:14 *181:A 0.000151959
22 *53:12 *178:B 2.59981e-05
23 *53:12 *58:40 3.86607e-05
24 *53:34 *58:40 2.4997e-05
25 *54:30 *181:A 5.16348e-05
26 *57:61 *58:12 0.000148968
*RES
1 *214:X *58:12 13.355 
2 *58:12 *177:B1 1.6 
3 *58:12 *58:23 4.19 
4 *58:23 *178:B 5.43 
5 *58:23 *58:40 5.555 
6 *58:40 *181:A 11.765 
7 *58:40 *196:A1 1.6 
*END

*D_NET *59 0.00643555
*CONN
*I *183:C I *D sky130_fd_sc_hd__and4_1
*I *184:A2 I *D sky130_fd_sc_hd__a22o_1
*I *202:A I *D sky130_fd_sc_hd__and3_1
*I *182:A I *D sky130_fd_sc_hd__nand2_1
*I *187:B I *D sky130_fd_sc_hd__and2_1
*I *190:B1 I *D sky130_fd_sc_hd__a22o_1
*I *215:X O *D sky130_fd_sc_hd__dlymetal6s2s_1
*CAP
1 *183:C 5.49933e-05
2 *184:A2 0
3 *202:A 0.000212571
4 *182:A 3.37585e-05
5 *187:B 2.08101e-05
6 *190:B1 0.000101941
7 *215:X 0.000657361
8 *59:68 9.47551e-05
9 *59:40 0.000447237
10 *59:38 0.000704243
11 *59:25 0.000627119
12 *59:12 0.000902037
13 *181:A *59:38 0.000160536
14 *184:A1 *183:C 0.000270426