*SPEF "ieee 1481-1999"
*DESIGN "mult4_SarsaNada_e10_SARSA_RUIDO_e9_SARSA_RUIDO_e9_SARSA_RUIDO_e9"
*DATE "18:47:22 Tuesday September 16, 2025"
*VENDOR "The OpenROAD Project"
*PROGRAM "OpenROAD"
*VERSION "edf00dff99f6c40d67a30c0e22a8191c5d2ed9d6"
*DESIGN_FLOW "NAME_SCOPE LOCAL" "PIN_CAP NONE"
*DIVIDER /
*DELIMITER :
*BUS_DELIMITER []
*T_UNIT 1 NS
*C_UNIT 1 PF
*R_UNIT 1 OHM
*L_UNIT 1 HENRY

*NAME_MAP
*1 A[0]
*2 A[1]
*3 A[2]
*4 A[3]
*5 B[0]
*6 B[1]
*7 B[2]
*8 B[3]
*9 P[0]
*10 P[1]
*11 P[2]
*12 P[3]
*13 P[4]
*14 P[5]
*15 P[6]
*16 P[7]
*19 _000_
*20 _001_
*21 _002_
*22 _003_
*23 _004_
*24 _005_
*25 _006_
*26 _007_
*27 _008_
*28 _009_
*29 _010_
*30 _011_
*31 _012_
*32 _013_
*33 _014_
*34 _015_
*35 _016_
*36 _017_
*37 _018_
*38 _019_
*39 _020_
*40 _021_
*41 _022_
*42 _023_
*43 _024_
*44 _025_
*45 _026_
*46 _027_
*47 _028_
*48 _029_
*49 _030_
*50 _031_
*51 _032_
*52 _033_
*53 _034_
*54 _035_
*55 _036_
*56 _037_
*57 _038_
*58 _039_
*59 _040_
*60 _041_
*61 _042_
*62 _043_
*63 _044_
*64 _045_
*65 _046_
*66 net1
*67 net10
*68 net11
*69 net12
*70 net13
*71 net14
*72 net15
*73 net16
*74 net2
*75 net3
*76 net4
*77 net5
*78 net6
*79 net7
*80 net8
*81 net9
*82 FILLER_0_10
*83 FILLER_0_14
*84 FILLER_0_23
*85 FILLER_0_29
*86 FILLER_0_55
*87 FILLER_0_57
*88 FILLER_0_61
*89 FILLER_0_69
*90 FILLER_1_11
*91 FILLER_1_17
*92 FILLER_1_21
*93 FILLER_1_25
*94 FILLER_1_37
*95 FILLER_1_41
*96 FILLER_1_51
*97 FILLER_1_55
*98 FILLER_1_69
*99 FILLER_2_11
*100 FILLER_2_16
*101 FILLER_2_3
*102 FILLER_2_32
*103 FILLER_2_40
*104 FILLER_2_51
*105 FILLER_2_59
*106 FILLER_2_71
*107 FILLER_2_79
*108 FILLER_3_15
*109 FILLER_3_26
*110 FILLER_3_3
*111 FILLER_3_48
*112 FILLER_3_65
*113 FILLER_4_12
*114 FILLER_4_24
*115 FILLER_4_29
*116 FILLER_4_41
*117 FILLER_4_6
*118 FILLER_4_61
*119 FILLER_4_73
*120 FILLER_5_14
*121 FILLER_5_26
*122 FILLER_5_3
*123 FILLER_5_38
*124 FILLER_5_49
*125 FILLER_5_55
*126 FILLER_5_57
*127 FILLER_5_65
*128 FILLER_5_70
*129 FILLER_5_78
*130 FILLER_6_19
*131 FILLER_6_36
*132 FILLER_6_42
*133 FILLER_6_63
*134 FILLER_6_7
*135 FILLER_7_11
*136 FILLER_7_26
*137 FILLER_7_3
*138 FILLER_7_38
*139 FILLER_7_50
*140 FILLER_7_57
*141 FILLER_7_69
*142 FILLER_8_15
*143 FILLER_8_23
*144 FILLER_8_29
*145 FILLER_8_3
*146 FILLER_8_64
*147 FILLER_8_7
*148 FILLER_8_74
*149 FILLER_8_80
*150 FILLER_9_18
*151 FILLER_9_27
*152 FILLER_9_36
*153 FILLER_9_42
*154 FILLER_9_54
*155 FILLER_9_57
*156 FILLER_9_6
*157 FILLER_9_69
*158 PHY_EDGE_ROW_0_Left_10
*159 PHY_EDGE_ROW_0_Right_0
*160 PHY_EDGE_ROW_1_Left_11
*161 PHY_EDGE_ROW_1_Right_1
*162 PHY_EDGE_ROW_2_Left_12
*163 PHY_EDGE_ROW_2_Right_2
*164 PHY_EDGE_ROW_3_Left_13
*165 PHY_EDGE_ROW_3_Right_3
*166 PHY_EDGE_ROW_4_Left_14
*167 PHY_EDGE_ROW_4_Right_4
*168 PHY_EDGE_ROW_5_Left_15
*169 PHY_EDGE_ROW_5_Right_5
*170 PHY_EDGE_ROW_6_Left_16
*171 PHY_EDGE_ROW_6_Right_6
*172 PHY_EDGE_ROW_7_Left_17
*173 PHY_EDGE_ROW_7_Right_7
*174 PHY_EDGE_ROW_8_Left_18
*175 PHY_EDGE_ROW_8_Right_8
*176 PHY_EDGE_ROW_9_Left_19
*177 PHY_EDGE_ROW_9_Right_9
*178 TAP_TAPCELL_ROW_0_20
*179 TAP_TAPCELL_ROW_0_21
*180 TAP_TAPCELL_ROW_1_22
*181 TAP_TAPCELL_ROW_2_23
*182 TAP_TAPCELL_ROW_3_24
*183 TAP_TAPCELL_ROW_4_25
*184 TAP_TAPCELL_ROW_5_26
*185 TAP_TAPCELL_ROW_6_27
*186 TAP_TAPCELL_ROW_7_28
*187 TAP_TAPCELL_ROW_8_29
*188 TAP_TAPCELL_ROW_9_30
*189 TAP_TAPCELL_ROW_9_31
*190 _047_
*191 _048_
*192 _049_
*193 _050_
*194 _051_
*195 _052_
*196 _053_
*197 _054_
*198 _055_
*199 _056_
*200 _057_
*201 _058_
*202 _059_
*203 _060_
*204 _061_
*205 _062_
*206 _063_
*207 _064_
*208 _065_
*209 _066_
*210 _067_
*211 _068_
*212 _069_
*213 _070_
*214 _071_
*215 _072_
*216 _073_
*217 _074_
*218 _075_
*219 _076_
*220 _077_
*221 _078_
*222 _079_
*223 _080_
*224 _081_
*225 _082_
*226 _083_
*227 _084_
*228 _085_
*229 _086_
*230 _087_
*231 _088_
*232 _089_
*233 _090_
*234 _091_
*235 _092_
*236 _093_
*237 _094_
*238 _095_
*239 _096_
*240 _097_
*241 _098_
*242 _099_
*243 _100_
*244 _101_
*245 input1
*246 input2
*247 input3
*248 input4
*249 input5
*250 input6
*251 input7
*252 input8
*253 output10
*254 output11
*255 output12
*256 output13
*257 output14
*258 output15
*259 output16
*260 output9

*PORTS
A[0] I
A[1] I
A[2] I
A[3] I
B[0] I
B[1] I
B[2] I
B[3] I
P[0] O
P[1] O
P[2] O
P[3] O
P[4] O
P[5] O
P[6] O
P[7] O

*D_NET *1 0.000759607
*CONN
*P A[0] I
*I *245:A I *D sky130_fd_sc_hd__buf_1
*CAP
1 A[0] 0.00036418
2 *245:A 0
3 *1:17 0.00036418
4 *1:17 P[0] 3.12475e-05
5 *1:17 *196:B 0
6 *1:17 *7:17 0
7 *1:17 *66:21 0
*RES
1 A[0] *1:17 28.2148 
2 *1:17 *245:A 23 
*END

*D_NET *2 0.000955342
*CONN
*P A[1] I
*I *246:A I *D sky130_fd_sc_hd__buf_1
*CAP
1 A[1] 0.000440987
2 *246:A 0.000440987
3 *246:A P[1] 0
4 *246:A *192:A 0
5 *246:A *193:C 5.50106e-05
6 *246:A *78:32 1.83564e-05
*RES
1 A[1] *246:A 47.3214 
*END

*D_NET *3 0.00089609
*CONN
*P A[2] I
*I *247:A I *D sky130_fd_sc_hd__dlymetal6s2s_1
*CAP
1 A[2] 0.000440938
2 *247:A 0.000440938
3 *247:A *6:11 0
4 *247:A *75:20 1.42137e-05
*RES
1 A[2] *247:A 47.4664 
*END

*D_NET *4 0.000744149
*CONN
*P A[3] I
*I *248:A I *D sky130_fd_sc_hd__buf_1
*CAP
1 A[3] 0.00033062
2 *248:A 0.00033062
3 *248:A *8:17 2.12457e-05
4 *248:A *76:8 6.16635e-05
*RES
1 A[3] *248:A 49.5439 
*END

*D_NET *5 0.00161852
*CONN
*P B[0] I
*I *249:A I *D sky130_fd_sc_hd__buf_1
*CAP
1 B[0] 0.000546288
2 *249:A 0
3 *5:9 0.000546288
4 *5:9 P[1] 0
5 *5:9 *198:A2 0.000187977
6 *5:9 *6:11 0
7 *5:9 *23:16 1.12487e-05
8 *5:9 *23:25 5.50049e-05
9 *5:9 *74:49 5.50049e-05
10 *5:9 *77:25 0
11 *5:9 *78:16 0.000216712
*RES
1 B[0] *5:9 27.4907 
2 *5:9 *249:A 23 
*END

*D_NET *6 0.00150325
*CONN
*P B[1] I
*I *250:A I *D sky130_fd_sc_hd__buf_1
*CAP
1 B[1] 0.000603184
2 *250:A 0
3 *6:11 0.000603184
4 *6:11 *198:A2 0
5 *6:11 *19:23 0.000187057
6 *6:11 *75:20 0
7 *6:11 *77:48 8.38139e-05
8 *6:11 *77:63 2.60152e-05
9 *247:A *6:11 0
10 *5:9 *6:11 0
*RES
1 B[1] *6:11 27.6357 
2 *6:11 *250:A 23 
*END

*D_NET *7 0.000656605
*CONN
*P B[2] I
*I *251:A I *D sky130_fd_sc_hd__buf_1
*CAP
1 B[2] 0.000328303
2 *251:A 0
3 *7:17 0.000328303
4 *7:17 *8:17 0
5 *7:17 *79:8 0
6 *1:17 *7:17 0
*RES
1 B[2] *7:17 27.1584 
2 *7:17 *251:A 23 
*END

*D_NET *8 0.00083243
*CONN
*P B[3] I
*I *252:A I *D sky130_fd_sc_hd__clkbuf_2
*CAP
1 B[3] 0.000405592
2 *252:A 0
3 *8:17 0.000405592
4 *8:17 *224:C 0
5 *248:A *8:17 2.12457e-05
6 *7:17 *8:17 0
*RES
1 B[3] *8:17 29.0434 
2 *8:17 *252:A 23 
*END

*D_NET *9 0.000757077
*CONN
*P P[0] O
*I *260:X O *D sky130_fd_sc_hd__buf_2
*CAP
1 P[0] 0.000362915
2 *260:X 0.000362915
3 P[0] *74:25 0
4 *1:17 P[0] 3.12475e-05
*RES
1 *260:X P[0] 48.7952 
*END

*D_NET *10 0.00108784
*CONN
*P P[1] O
*I *253:X O *D sky130_fd_sc_hd__buf_2
*CAP
1 P[1] 0.000472939
2 *253:X 0.000472939
3 P[1] *78:24 0.00014196
4 *246:A P[1] 0
5 *5:9 P[1] 0
*RES
1 *253:X P[1] 47.57 
*END

*D_NET *11 0.000527382
*CONN
*P P[2] O
*I *254:X O *D sky130_fd_sc_hd__buf_2
*CAP
1 P[2] 0.000263691
2 *254:X 0.000263691
3 P[2] P[3] 0
*RES
1 *254:X P[2] 47.1648 
*END

*D_NET *12 0.000824859
*CONN
*P P[3] O
*I *255:X O *D sky130_fd_sc_hd__buf_2
*CAP
1 P[3] 0.000348899
2 *255:X 0.000348899
3 P[3] P[4] 0
4 P[3] *69:8 0.00012706
5 P[2] P[3] 0
*RES
1 *255:X P[3] 48.5734 
*END

*D_NET *13 0.000511602
*CONN
*P P[4] O
*I *256:X O *D sky130_fd_sc_hd__buf_2
*CAP
1 P[4] 0.000255801
2 *256:X 0.000255801
3 P[4] P[5] 0
4 P[4] *222:B 0
5 P[3] P[4] 0
*RES
1 *256:X P[4] 47.1648 
*END

*D_NET *14 0.000675947
*CONN
*P P[5] O
*I *257:X O *D sky130_fd_sc_hd__buf_2
*CAP
1 P[5] 0.000337973
2 *257:X 0.000337973
3 P[5] *71:8 0
4 P[4] P[5] 0
*RES
1 *257:X P[5] 48.5734 
*END

*D_NET *15 0.00100375
*CONN
*P P[6] O
*I *258:X O *D sky130_fd_sc_hd__buf_2
*CAP
1 P[6] 0.000501876
2 *258:X 0.000501876
*RES
1 *258:X P[6] 48.9786 
*END

*D_NET *16 0.00172105
*CONN
*P P[7] O
*I *259:X O *D sky130_fd_sc_hd__buf_2
*CAP
1 P[7] 0.000706196
2 *259:X 0
3 *16:6 0.000706196
4 P[7] *61:10 0.000308661
5 P[7] *63:10 0
*RES
1 *259:X *16:6 38 
2 *16:6 P[7] 15.5564 
*END

*D_NET *19 0.00257456
*CONN
*I *198:A3 I *D sky130_fd_sc_hd__a31o_1
*I *197:C I *D sky130_fd_sc_hd__and4_1
*I *190:Y O *D sky130_fd_sc_hd__nand2_1
*CAP
1 *198:A3 0
2 *197:C 0
3 *190:Y 0.000280884
4 *19:23 0.00045494
5 *19:6 0.000735824
6 *19:6 *197:B 2.02872e-05
7 *19:6 *23:25 1.46286e-05
8 *19:6 *74:49 0.000315852
9 *19:23 *195:A 1.32314e-05
10 *19:23 *21:8 0
11 *19:23 *22:8 2.18506e-05
12 *19:23 *23:25 1.10658e-05
13 *19:23 *23:34 0.00022884
14 *19:23 *25:12 7.72342e-05
15 *19:23 *28:14 6.16439e-05
16 *19:23 *75:10 4.00259e-06
17 *19:23 *75:20 1.46205e-05
18 *19:23 *77:48 2.16891e-05
19 *19:23 *77:63 0.000110913
20 *6:11 *19:23 0.000187057
*RES
1 *190:Y *19:6 27.4329 
2 *19:6 *197:C 23 
3 *19:6 *19:23 39.3421 
4 *19:23 *198:A3 23 
*END

*D_NET *20 0.00337904
*CONN
*I *210:A I *D sky130_fd_sc_hd__or3_1
*I *213:B1 I *D sky130_fd_sc_hd__o21ai_1
*I *193:C I *D sky130_fd_sc_hd__and3_1
*I *192:B I *D sky130_fd_sc_hd__nand2_1
*I *191:Y O *D sky130_fd_sc_hd__nand4_1
*CAP
1 *210:A 2.97266e-05
2 *213:B1 0.000222644
3 *193:C 0.000135011
4 *192:B 0.000138025
5 *191:Y 0
6 *20:36 0.000536592
7 *20:10 0.000463739
8 *20:6 0.000474923
9 *192:B *74:8 0.000105934
10 *193:C *253:A 1.37232e-05
11 *193:C *74:8 6.17437e-06
12 *193:C *78:24 9.73404e-05
13 *210:A *213:A1 5.50106e-05
14 *210:A *34:36 1.41129e-05
15 *210:A *35:27 5.50106e-05
16 *213:B1 *213:A1 8.22914e-05
17 *213:B1 *35:27 0.00015488
18 *213:B1 *36:6 0.000149688
19 *213:B1 *39:16 2.30292e-05
20 *20:10 *192:A 0
21 *20:10 *66:53 0
22 *20:10 *74:25 0
23 *20:10 *77:14 0.000138727
24 *20:10 *78:32 5.58171e-05
25 *20:36 *196:B 0
26 *20:36 *34:12 2.64616e-05
27 *20:36 *34:18 6.25829e-05
28 *20:36 *34:36 6.17437e-06
29 *20:36 *35:10 3.3746e-05
30 *20:36 *74:33 2.68708e-05
31 *20:36 *80:37 0.000215791
32 *246:A *193:C 5.50106e-05
*RES
1 *191:Y *20:6 38 
2 *20:6 *20:10 18.6664 
3 *20:10 *192:B 26.5007 
4 *20:10 *193:C 26.6043 
5 *20:6 *20:36 20.3443 
6 *20:36 *213:B1 29.4214 
7 *20:36 *210:A 24.0979 
*END

*D_NET *21 0.00155644
*CONN
*I *220:A1 I *D sky130_fd_sc_hd__a21o_1
*I *204:A I *D sky130_fd_sc_hd__or4b_2
*I *194:X O *D sky130_fd_sc_hd__and2_1
*CAP
1 *220:A1 0.000286068
2 *204:A 0
3 *194:X 0.00012512
4 *21:12 0.000333683
5 *21:8 0.000172736
6 *220:A1 *199:B 5.50106e-05
7 *220:A1 *24:6 0.000257206
8 *220:A1 *30:10 5.67058e-05
9 *21:8 *204:B 8.81402e-05
10 *21:8 *75:42 3.4299e-05
11 *21:12 *23:34 5.3304e-05
12 *21:12 *24:6 9.41704e-05
13 *19:23 *21:8 0
*RES
1 *194:X *21:8 40.2579 
2 *21:8 *21:12 16.0979 
3 *21:12 *204:A 23 
4 *21:12 *220:A1 29.3593 
*END

*D_NET *22 0.00257451
*CONN
*I *200:A I *D sky130_fd_sc_hd__xnor2_1
*I *205:B2 I *D sky130_fd_sc_hd__a2bb2o_1
*I *195:Y O *D sky130_fd_sc_hd__nand2_1
*CAP
1 *200:A 0.000325321
2 *205:B2 0
3 *195:Y 0.000249599
4 *22:14 0.000238167
5 *22:8 0.000813087
6 *200:A *25:12 0.000202663
7 *22:8 *195:A 5.73309e-05
8 *22:8 *25:12 2.96891e-05
9 *22:8 *75:6 4.95081e-05
10 *22:8 *75:10 9.90628e-05
11 *22:8 *75:20 0.000185054
12 *22:14 *204:D_N 0.000168754
13 *22:14 *25:16 0
14 *22:14 *30:10 5.56203e-05
15 *22:14 *75:42 7.88066e-05
16 *19:23 *22:8 2.18506e-05
*RES
1 *195:Y *22:8 28.8829 
2 *22:8 *22:14 35.4271 
3 *22:14 *205:B2 23 
4 *22:8 *200:A 30.2914 
*END

*D_NET *23 0.00486008
*CONN
*I *205:A1_N I *D sky130_fd_sc_hd__a2bb2o_1
*I *204:B I *D sky130_fd_sc_hd__or4b_2
*I *197:D I *D sky130_fd_sc_hd__and4_1
*I *198:B1 I *D sky130_fd_sc_hd__a31o_1
*I *196:X O *D sky130_fd_sc_hd__and2_1
*CAP
1 *205:A1_N 8.69046e-05
2 *204:B 5.28368e-05
3 *197:D 0
4 *198:B1 0
5 *196:X 0.000277867
6 *23:34 0.000360629
7 *23:25 0.000354306
8 *23:16 0.000245193
9 *23:8 0.000656479
10 *204:B *75:42 0.000112446
11 *205:A1_N *75:42 0.000167123
12 *23:8 *190:B 4.79641e-05
13 *23:8 *66:47 0.000110389
14 *23:8 *74:25 0.00010018
15 *23:8 *74:49 0.000105498
16 *23:8 *77:6 0.00014196
17 *23:8 *77:14 0.000436767
18 *23:8 *77:32 5.50049e-05
19 *23:8 *78:32 9.84794e-05
20 *23:16 *198:A1 9.5877e-05
21 *23:16 *198:A2 7.53384e-06
22 *23:16 *66:53 0
23 *23:16 *77:25 0
24 *23:16 *78:16 0.000192077
25 *23:16 *78:24 5.50049e-05
26 *23:16 *78:32 0
27 *23:25 *197:B 5.3304e-05
28 *23:25 *74:49 4.96866e-05
29 *23:25 *77:32 1.41129e-05
30 *23:25 *78:6 0.000100069
31 *23:25 *78:8 9.41704e-05
32 *23:25 *78:16 5.3304e-05
33 *23:34 *24:6 0.000101207
34 *23:34 *28:14 0.000144501
35 *23:34 *78:6 2.69729e-05
36 *5:9 *23:16 1.12487e-05
37 *5:9 *23:25 5.50049e-05
38 *19:6 *23:25 1.46286e-05
39 *19:23 *23:25 1.10658e-05
40 *19:23 *23:34 0.00022884
41 *21:8 *204:B 8.81402e-05
42 *21:12 *23:34 5.3304e-05
*RES
1 *196:X *23:8 32.2179 
2 *23:8 *23:16 34.5364 
3 *23:16 *198:B1 23 
4 *23:8 *23:25 3.85286 
5 *23:25 *197:D 23 
6 *23:25 *23:34 20.3857 
7 *23:34 *204:B 39.5536 
8 *23:34 *205:A1_N 40.2579 
*END

*D_NET *24 0.00210707
*CONN
*I *199:A_N I *D sky130_fd_sc_hd__and2b_1
*I *220:B1 I *D sky130_fd_sc_hd__a21o_1
*I *197:X O *D sky130_fd_sc_hd__and4_1
*CAP
1 *199:A_N 5.33322e-05
2 *220:B1 2.0995e-05
3 *197:X 0.000469418
4 *24:6 0.000543745
5 *199:A_N *199:B 8.1796e-05
6 *220:B1 *199:B 1.14154e-05
7 *24:6 *199:B 0.000123239
8 *24:6 *28:14 0.000146822
9 *24:6 *77:63 2.31687e-05
10 *24:6 *78:6 0.000180559
11 *220:A1 *24:6 0.000257206
12 *21:12 *24:6 9.41704e-05
13 *23:34 *24:6 0.000101207
*RES
1 *197:X *24:6 34.5793 
2 *24:6 *220:B1 23.4971 
3 *24:6 *199:A_N 24.5743 
*END

*D_NET *25 0.00290428
*CONN
*I *199:B I *D sky130_fd_sc_hd__and2b_1
*I *220:A2 I *D sky130_fd_sc_hd__a21o_1
*I *198:X O *D sky130_fd_sc_hd__a31o_1
*CAP
1 *199:B 0.000267629
2 *220:A2 0
3 *198:X 0.000582732
4 *25:16 0.000431032
5 *25:12 0.000746136
6 *199:B *26:10 1.39431e-05
7 *25:12 *195:A 1.40958e-05
8 *25:12 *75:6 9.84851e-05
9 *25:12 *75:10 0.000169184
10 *25:16 *204:D_N 0
11 *25:16 *26:10 0
12 *199:A_N *199:B 8.1796e-05
13 *200:A *25:12 0.000202663
14 *220:A1 *199:B 5.50106e-05
15 *220:B1 *199:B 1.14154e-05
16 *19:23 *25:12 7.72342e-05
17 *22:8 *25:12 2.96891e-05
18 *22:14 *25:16 0
19 *24:6 *199:B 0.000123239
*RES
1 *198:X *25:12 48.7921 
2 *25:12 *25:16 17.61 
3 *25:16 *220:A2 23 
4 *25:16 *199:B 29.2764 
*END

*D_NET *26 0.000496383
*CONN
*I *200:B I *D sky130_fd_sc_hd__xnor2_1
*I *199:X O *D sky130_fd_sc_hd__and2b_1
*CAP
1 *200:B 0
2 *199:X 0.000221542
3 *26:10 0.000221542
4 *26:10 *254:A 3.7122e-06
5 *26:10 *68:8 3.56433e-05
6 *199:B *26:10 1.39431e-05
7 *25:16 *26:10 0
*RES
1 *199:X *26:10 41.48 
2 *26:10 *200:B 38 
*END

*D_NET *27 0.00412807
*CONN
*I *241:A1 I *D sky130_fd_sc_hd__a21oi_1
*I *206:A_N I *D sky130_fd_sc_hd__nand3b_2
*I *207:B1_N I *D sky130_fd_sc_hd__a21bo_1
*I *235:C I *D sky130_fd_sc_hd__and3_1
*I *201:Y O *D sky130_fd_sc_hd__nand2_1
*CAP
1 *241:A1 0
2 *206:A_N 0
3 *207:B1_N 0.00028097
4 *235:C 9.61529e-05
5 *201:Y 0.000313869
6 *27:27 0.00101942
7 *27:19 0.000938446
8 *27:10 0.000296151
9 *27:8 0.000313869
10 *207:B1_N *206:C 0.000129844
11 *207:B1_N *207:A1 7.51453e-06
12 *235:C *76:36 4.91895e-05
13 *27:8 *224:A 0
14 *27:8 *235:A 0
15 *27:8 *237:B 0
16 *27:8 *60:10 0
17 *27:8 *80:8 0
18 *27:8 *80:27 0
19 *27:19 *76:36 9.52846e-05
20 *27:27 *206:C 5.58975e-06
21 *27:27 *241:B1 4.96717e-05
22 *27:27 *30:34 9.40067e-05
23 *27:27 *76:36 0.000123934
24 *27:27 *76:47 0.000314157
*RES
1 *201:Y *27:8 43.4271 
2 *27:8 *27:10 15 
3 *27:10 *235:C 24.885 
4 *27:10 *27:19 3.95643 
5 *27:19 *27:27 30.3907 
6 *27:27 *207:B1_N 42.7229 
7 *27:27 *206:A_N 38 
8 *27:19 *241:A1 23 
*END

*D_NET *28 0.00178303
*CONN
*I *205:A2_N I *D sky130_fd_sc_hd__a2bb2o_1
*I *204:C I *D sky130_fd_sc_hd__or4b_2
*I *202:Y O *D sky130_fd_sc_hd__nand2_1
*CAP
1 *205:A2_N 0.000178025
2 *204:C 0
3 *202:Y 0.000307383
4 *28:14 0.000169864
5 *28:6 0.000655272
6 *205:A2_N *31:10 7.87147e-05
7 *28:14 *77:48 4.08093e-05
8 *19:23 *28:14 6.16439e-05
9 *23:34 *28:14 0.000144501
10 *24:6 *28:14 0.000146822
*RES
1 *202:Y *28:6 27.9093 
2 *28:6 *28:14 34.5364 
3 *28:14 *204:C 23 
4 *28:6 *205:A2_N 26.5007 
*END

*D_NET *29 0.00106818
*CONN
*I *205:B1 I *D sky130_fd_sc_hd__a2bb2o_1
*I *204:D_N I *D sky130_fd_sc_hd__or4b_2
*I *203:X O *D sky130_fd_sc_hd__and2_1
*CAP
1 *205:B1 0
2 *204:D_N 0.000110794
3 *203:X 0.00016106
4 *29:10 0.000271854
5 *204:D_N *30:10 2.04774e-05
6 *204:D_N *36:14 1.14452e-05
7 *204:D_N *39:39 0
8 *29:10 *30:10 4.16661e-05
9 *29:10 *36:14 0.000141869
10 *29:10 *38:6 0.000140259
11 *22:14 *204:D_N 0.000168754
12 *25:16 *204:D_N 0
*RES
1 *203:X *29:10 41.48 
2 *29:10 *204:D_N 40.9621 
3 *29:10 *205:B1 38 
*END

*D_NET *30 0.00435181
*CONN
*I *229:A I *D sky130_fd_sc_hd__and3_1
*I *231:A1 I *D sky130_fd_sc_hd__a21oi_1
*I *230:A I *D sky130_fd_sc_hd__nand3_1
*I *206:B I *D sky130_fd_sc_hd__nand3b_2
*I *207:A1 I *D sky130_fd_sc_hd__a21bo_1
*I *204:X O *D sky130_fd_sc_hd__or4b_2
*CAP
1 *229:A 0.00023166
2 *231:A1 9.42175e-06
3 *230:A 0.000102116
4 *206:B 0
5 *207:A1 7.90504e-05
6 *204:X 0.000420766
7 *30:34 0.000638953
8 *30:21 0.000400764
9 *30:10 0.000604825
10 *229:A *229:C 0.000139357
11 *229:A *232:B 4.5051e-05
12 *229:A *32:28 2.24608e-05
13 *229:A *32:36 5.3351e-05
14 *229:A *53:25 0.000180218
15 *229:A *55:12 9.5877e-05
16 *229:A *56:8 6.9805e-05
17 *231:A1 *32:28 0
18 *30:10 *206:C 3.70094e-05
19 *30:10 *238:A_N 0
20 *30:10 *238:C 0
21 *30:10 *31:10 0.000564507
22 *30:10 *36:14 0
23 *30:10 *41:8 0
24 *30:10 *75:42 0.00019645
25 *30:21 *206:C 0.000184174
26 *30:21 *238:A_N 0
27 *30:21 *33:10 0
28 *30:34 *216:B 0
29 *30:34 *32:28 0
30 *30:34 *33:10 0
31 *204:D_N *30:10 2.04774e-05
32 *207:B1_N *207:A1 7.51453e-06
33 *220:A1 *30:10 5.67058e-05
34 *22:14 *30:10 5.56203e-05
35 *27:27 *30:34 9.40067e-05
36 *29:10 *30:10 4.16661e-05
*RES
1 *204:X *30:10 49.3307 
2 *30:10 *207:A1 39.0979 
3 *30:10 *30:21 2.61 
4 *30:21 *206:B 38 
5 *30:21 *30:34 6.36964 
6 *30:34 *230:A 39.4189 
7 *30:34 *231:A1 38.3211 
8 *30:34 *229:A 43.3754 
*END

*D_NET *31 0.00214928
*CONN
*I *206:C I *D sky130_fd_sc_hd__nand3b_2
*I *207:A2 I *D sky130_fd_sc_hd__a21bo_1
*I *205:X O *D sky130_fd_sc_hd__a2bb2o_1
*CAP
1 *206:C 9.60488e-05
2 *207:A2 0
3 *205:X 0.000365161
4 *31:10 0.000461209
5 *31:10 *75:42 8.29264e-05
6 *31:10 *76:64 0.000136752
7 *31:10 *78:88 7.34394e-06
8 *205:A2_N *31:10 7.87147e-05
9 *207:B1_N *206:C 0.000129844
10 *27:27 *206:C 5.58975e-06
11 *30:10 *206:C 3.70094e-05
12 *30:10 *31:10 0.000564507
13 *30:21 *206:C 0.000184174
*RES
1 *205:X *31:10 47.1143 
2 *31:10 *207:A2 38 
3 *31:10 *206:C 40.9621 
*END

*D_NET *32 0.00298661
*CONN
*I *229:B I *D sky130_fd_sc_hd__and3_1
*I *231:A2 I *D sky130_fd_sc_hd__a21oi_1
*I *230:B I *D sky130_fd_sc_hd__nand3_1
*I *217:A1 I *D sky130_fd_sc_hd__a21o_1
*I *216:A I *D sky130_fd_sc_hd__and3_1
*I *206:Y O *D sky130_fd_sc_hd__nand3b_2
*CAP
1 *229:B 0.000278296
2 *231:A2 1.1196e-05
3 *230:B 2.73884e-05
4 *217:A1 0
5 *216:A 0.000158787
6 *206:Y 0
7 *32:36 0.000202569
8 *32:28 0.000705187
9 *32:10 0.000274794
10 *32:4 0.000378914
11 *216:A *216:B 1.89178e-05
12 *216:A *216:C 4.2573e-05
13 *216:A *217:B1 9.67842e-05
14 *216:A *53:10 1.24376e-05
15 *229:B *232:B 0.00010655
16 *229:B *56:8 0.000103647
17 *230:B *55:12 9.54154e-05
18 *230:B *63:10 5.68958e-05
19 *231:A2 *55:12 5.47983e-06
20 *231:A2 *56:8 3.23857e-06
21 *32:10 *216:B 2.64616e-05
22 *32:10 *216:C 0
23 *32:10 *53:10 4.56101e-05
24 *32:28 *216:B 2.08324e-05
25 *32:28 *42:40 6.33511e-05
26 *32:28 *53:23 7.0662e-05
27 *32:36 *55:12 5.07266e-05
28 *32:36 *63:10 5.40876e-05
29 *229:A *32:28 2.24608e-05
30 *229:A *32:36 5.3351e-05
31 *231:A1 *32:28 0
32 *30:34 *32:28 0
*RES
1 *206:Y *32:4 23 
2 *32:4 *32:10 2.56857 
3 *32:10 *216:A 26.0243 
4 *32:10 *217:A1 23 
5 *32:4 *32:28 20.6032 
6 *32:28 *32:36 17.9932 
7 *32:36 *230:B 24.595 
8 *32:36 *231:A2 23.4971 
9 *32:28 *229:B 42.6296 
*END

*D_NET *33 0.00157175
*CONN
*I *216:B I *D sky130_fd_sc_hd__and3_1
*I *217:A2 I *D sky130_fd_sc_hd__a21o_1
*I *207:X O *D sky130_fd_sc_hd__a21bo_1
*CAP
1 *216:B 0.00030735
2 *217:A2 0
3 *207:X 0.000244576
4 *33:10 0.000551925
5 *216:B *217:B1 2.98648e-05
6 *216:B *43:6 0.000143655
7 *216:B *53:23 8.94487e-05
8 *33:10 *238:A_N 8.4047e-05
9 *33:10 *53:23 5.46706e-05
10 *216:A *216:B 1.89178e-05
11 *30:21 *33:10 0
12 *30:34 *216:B 0
13 *30:34 *33:10 0
14 *32:10 *216:B 2.64616e-05
15 *32:28 *216:B 2.08324e-05
*RES
1 *207:X *33:10 41.9564 
2 *33:10 *217:A2 38 
3 *33:10 *216:B 43.1579 
*END

*D_NET *34 0.00248678
*CONN
*I *213:A1 I *D sky130_fd_sc_hd__o21ai_1
*I *210:B I *D sky130_fd_sc_hd__or3_1
*I *236:A1 I *D sky130_fd_sc_hd__a21oi_1
*I *226:A I *D sky130_fd_sc_hd__xnor2_1
*I *208:X O *D sky130_fd_sc_hd__and4_1
*CAP
1 *213:A1 0.0001445
2 *210:B 0
3 *236:A1 0.000104356
4 *226:A 6.46136e-05
5 *208:X 7.64e-05
6 *34:36 0.000185794
7 *34:18 0.00034611
8 *34:12 0.000472412
9 *34:8 0.000330378
10 *213:A1 *35:27 0.000119265
11 *226:A *226:B 1.09556e-05
12 *226:A *37:16 0
13 *236:A1 *226:B 0.000156145
14 *236:A1 *37:16 4.34745e-05
15 *34:8 *79:8 0
16 *34:8 *80:37 0
17 *34:18 *35:10 8.9458e-05
18 *34:18 *80:37 9.6289e-05
19 *210:A *213:A1 5.50106e-05
20 *210:A *34:36 1.41129e-05
21 *213:B1 *213:A1 8.22914e-05
22 *20:36 *34:12 2.64616e-05
23 *20:36 *34:18 6.25829e-05
24 *20:36 *34:36 6.17437e-06
*RES
1 *208:X *34:8 39.2014 
2 *34:8 *34:12 18.0036 
3 *34:12 *34:18 33.3143 
4 *34:18 *226:A 24.1186 
5 *34:18 *236:A1 25.5271 
6 *34:12 *34:36 0.621429 
7 *34:36 *210:B 23 
8 *34:36 *213:A1 27.3086 
*END

*D_NET *35 0.00142785
*CONN
*I *213:A2 I *D sky130_fd_sc_hd__o21ai_1
*I *210:C I *D sky130_fd_sc_hd__or3_1
*I *209:Y O *D sky130_fd_sc_hd__nand2_1
*CAP
1 *213:A2 0
2 *210:C 0
3 *209:Y 0.000248974
4 *35:27 0.000213151
5 *35:12 0.000213151
6 *35:10 0.000248974
7 *35:10 *202:B 2.47815e-05
8 *35:10 *209:A 2.64616e-05
9 *210:A *35:27 5.50106e-05
10 *213:A1 *35:27 0.000119265
11 *213:B1 *35:27 0.00015488
12 *20:36 *35:10 3.3746e-05
13 *34:18 *35:10 8.9458e-05
*RES
1 *209:Y *35:10 41.8321 
2 *35:10 *35:12 15 
3 *35:12 *210:C 23 
4 *35:12 *35:27 34.35 
5 *35:27 *213:A2 23 
*END

*D_NET *36 0.00466843
*CONN
*I *219:A1 I *D sky130_fd_sc_hd__a21o_1
*I *215:B1_N I *D sky130_fd_sc_hd__a21bo_1
*I *214:A I *D sky130_fd_sc_hd__nand3_1
*I *210:X O *D sky130_fd_sc_hd__or3_1
*CAP
1 *219:A1 0
2 *215:B1_N 0
3 *214:A 2.34823e-05
4 *210:X 0.00097073
5 *36:29 0.000336635
6 *36:14 0.000782586
7 *36:6 0.0013932
8 *36:6 *212:A_N 6.47181e-05
9 *36:6 *39:16 0.000129495
10 *36:6 *39:31 3.5638e-05
11 *36:6 *77:48 0.000144494
12 *36:6 *78:75 0.00015011
13 *36:6 *78:88 0.000142173
14 *36:14 *39:39 5.50049e-05
15 *36:14 *45:12 0
16 *36:29 *46:8 0.000137163
17 *36:29 *46:27 0
18 *36:29 *47:8 0
19 *204:D_N *36:14 1.14452e-05
20 *213:B1 *36:6 0.000149688
21 *29:10 *36:14 0.000141869
22 *30:10 *36:14 0
*RES
1 *210:X *36:6 37.4379 
2 *36:6 *36:14 37.1464 
3 *36:14 *214:A 23.4971 
4 *36:14 *36:29 36.67 
5 *36:29 *215:B1_N 23 
6 *36:6 *219:A1 23 
*END

*D_NET *37 0.00187831
*CONN
*I *212:A_N I *D sky130_fd_sc_hd__and3b_1
*I *236:A2 I *D sky130_fd_sc_hd__a21oi_1
*I *226:B I *D sky130_fd_sc_hd__xnor2_1
*I *211:X O *D sky130_fd_sc_hd__and4_1
*CAP
1 *212:A_N 7.85656e-05
2 *236:A2 0
3 *226:B 8.97276e-05
4 *211:X 0
5 *37:16 0.000474065
6 *37:4 0.000462903
7 *212:A_N *39:16 7.27085e-05
8 *212:A_N *77:48 7.87147e-05
9 *212:A_N *78:64 0.000144501
10 *212:A_N *78:75 5.79559e-05
11 *226:B *60:10 2.30292e-05
12 *37:16 *211:D 6.6869e-05
13 *37:16 *60:10 5.39789e-05
14 *37:16 *77:48 0
15 *226:A *226:B 1.09556e-05
16 *226:A *37:16 0
17 *236:A1 *226:B 0.000156145
18 *236:A1 *37:16 4.34745e-05
19 *36:6 *212:A_N 6.47181e-05
*RES
1 *211:X *37:4 23 
2 *37:4 *37:16 37.685 
3 *37:16 *226:B 25.6929 
4 *37:16 *236:A2 23 
5 *37:4 *212:A_N 26.48 
*END

*D_NET *38 0.00241368
*CONN
*I *215:A1 I *D sky130_fd_sc_hd__a21bo_1
*I *214:B I *D sky130_fd_sc_hd__nand3_1
*I *219:B1 I *D sky130_fd_sc_hd__a21o_1
*I *212:X O *D sky130_fd_sc_hd__and3b_1
*CAP
1 *215:A1 5.25795e-05
2 *214:B 0
3 *219:B1 2.52622e-05
4 *212:X 0.000186695
5 *38:21 0.00011246
6 *38:15 0.000243157
7 *38:6 0.000290074
8 *215:A1 *215:A2 9.5877e-05
9 *215:A1 *39:31 0
10 *215:A1 *40:12 1.76557e-05
11 *215:A1 *45:12 0.000126914
12 *219:B1 *39:16 9.72057e-06
13 *219:B1 *39:31 4.50453e-05
14 *38:6 *39:16 0.00031983
15 *38:6 *39:31 5.52656e-05
16 *38:6 *75:42 0.000144494
17 *38:15 *215:A2 4.08664e-05
18 *38:15 *39:31 0.000113527
19 *38:15 *45:12 9.41704e-05
20 *38:21 *39:39 0.000188916
21 *38:21 *40:8 0.000110913
22 *38:21 *46:8 0
23 *29:10 *38:6 0.000140259
*RES
1 *212:X *38:6 28.3857 
2 *38:6 *219:B1 23.8493 
3 *38:6 *38:15 2.05071 
4 *38:15 *38:21 32.61 
5 *38:21 *214:B 23 
6 *38:15 *215:A1 25.0714 
*END

*D_NET *39 0.00400007
*CONN
*I *215:A2 I *D sky130_fd_sc_hd__a21bo_1
*I *214:C I *D sky130_fd_sc_hd__nand3_1
*I *219:A2 I *D sky130_fd_sc_hd__a21o_1
*I *213:Y O *D sky130_fd_sc_hd__o21ai_1
*CAP
1 *215:A2 6.71625e-05
2 *214:C 0
3 *219:A2 0
4 *213:Y 0.000714014
5 *39:39 0.000150133
6 *39:31 0.000397685
7 *39:16 0.000894403
8 *215:A2 *40:12 2.93845e-05
9 *39:16 *75:42 2.94066e-05
10 *39:16 *78:64 0.00014349
11 *39:16 *78:75 0.000189069
12 *39:16 *78:88 0.000129736
13 *39:39 *40:8 1.12487e-05
14 *39:39 *45:12 5.94125e-05
15 *204:D_N *39:39 0
16 *212:A_N *39:16 7.27085e-05
17 *213:B1 *39:16 2.30292e-05
18 *215:A1 *215:A2 9.5877e-05
19 *215:A1 *39:31 0
20 *219:B1 *39:16 9.72057e-06
21 *219:B1 *39:31 4.50453e-05
22 *36:6 *39:16 0.000129495
23 *36:6 *39:31 3.5638e-05
24 *36:14 *39:39 5.50049e-05
25 *38:6 *39:16 0.00031983
26 *38:6 *39:31 5.52656e-05
27 *38:15 *215:A2 4.08664e-05
28 *38:15 *39:31 0.000113527
29 *38:21 *39:39 0.000188916
*RES
1 *213:Y *39:16 38.0179 
2 *39:16 *219:A2 23 
3 *39:16 *39:31 4.64 
4 *39:31 *39:39 33.5836 
5 *39:39 *214:C 23 
6 *39:31 *215:A2 24.5743 
*END

*D_NET *40 0.00211549
*CONN
*I *238:D I *D sky130_fd_sc_hd__and4b_1
*I *243:A1 I *D sky130_fd_sc_hd__a21oi_1
*I *221:A I *D sky130_fd_sc_hd__and3_1
*I *214:Y O *D sky130_fd_sc_hd__nand3_1
*CAP
1 *238:D 0.000105246
2 *243:A1 0.00022509
3 *221:A 0
4 *214:Y 0.000127462
5 *40:12 0.000504543
6 *40:8 0.000512161
7 *238:D *238:B 2.35426e-05
8 *238:D *41:8 0.000127263
9 *238:D *46:8 0
10 *238:D *62:8 4.64789e-06
11 *243:A1 *243:A2 3.61155e-05
12 *243:A1 *244:A 9.84851e-05
13 *243:A1 *45:12 8.7283e-06
14 *243:A1 *46:27 1.95448e-05
15 *40:8 *41:8 3.92407e-05
16 *40:8 *45:12 4.99753e-06
17 *40:8 *46:8 0
18 *40:12 *45:12 0.000109216
19 *215:A1 *40:12 1.76557e-05
20 *215:A2 *40:12 2.93845e-05
21 *38:21 *40:8 0.000110913
22 *39:39 *40:8 1.12487e-05
*RES
1 *214:Y *40:8 40.61 
2 *40:8 *40:12 20.3857 
3 *40:12 *221:A 23 
4 *40:12 *243:A1 26.5007 
5 *40:8 *238:D 40.1802 
*END

*D_NET *41 0.00159608
*CONN
*I *216:C I *D sky130_fd_sc_hd__and3_1
*I *217:B1 I *D sky130_fd_sc_hd__a21o_1
*I *215:X O *D sky130_fd_sc_hd__a21bo_1
*CAP
1 *216:C 8.57748e-05
2 *217:B1 3.67862e-05
3 *215:X 0.000333775
4 *41:10 0.000122561
5 *41:8 0.000333775
6 *216:C *43:6 7.48648e-05
7 *217:B1 *43:6 6.17437e-06
8 *41:8 *233:B1 0
9 *41:8 *238:A_N 0
10 *41:8 *238:C 5.56203e-05
11 *41:8 *239:C1 0.000175438
12 *41:8 *45:12 3.55887e-05
13 *41:8 *58:8 0
14 *216:A *216:C 4.2573e-05
15 *216:A *217:B1 9.67842e-05
16 *216:B *217:B1 2.98648e-05
17 *238:D *41:8 0.000127263
18 *30:10 *41:8 0
19 *32:10 *216:C 0
20 *40:8 *41:8 3.92407e-05
*RES
1 *215:X *41:8 46.2443 
2 *41:8 *41:10 15 
3 *41:10 *217:B1 24.0979 
4 *41:10 *216:C 25.2993 
*END

*D_NET *42 0.00239291
*CONN
*I *239:A1 I *D sky130_fd_sc_hd__a211o_1
*I *218:A_N I *D sky130_fd_sc_hd__and2b_1
*I *233:B1 I *D sky130_fd_sc_hd__a21oi_1
*I *216:X O *D sky130_fd_sc_hd__and3_1
*CAP
1 *239:A1 0
2 *218:A_N 2.79004e-05
3 *233:B1 0.000223501
4 *216:X 4.25104e-05
5 *42:40 0.000646148
6 *42:10 0.000294012
7 *42:8 0.000731269
8 *218:A_N *43:6 5.50106e-05
9 *233:B1 *239:C1 0
10 *233:B1 *58:8 6.38947e-05
11 *42:8 *43:6 5.50049e-05
12 *42:10 *239:C1 0
13 *42:10 *58:8 1.62015e-05
14 *42:40 *239:C1 1.59312e-05
15 *42:40 *53:23 8.4047e-05
16 *42:40 *58:8 7.41231e-05
17 *32:28 *42:40 6.33511e-05
18 *41:8 *233:B1 0
*RES
1 *216:X *42:8 38.6214 
2 *42:8 *42:10 0.849286 
3 *42:10 *233:B1 42.1843 
4 *42:10 *218:A_N 38.6214 
5 *42:8 *42:40 40.2536 
6 *42:40 *239:A1 38 
*END

*D_NET *43 0.00117446
*CONN
*I *233:A1 I *D sky130_fd_sc_hd__a21oi_1
*I *218:B I *D sky130_fd_sc_hd__and2b_1
*I *217:X O *D sky130_fd_sc_hd__a21o_1
*CAP
1 *233:A1 0
2 *218:B 0
3 *217:X 0.000221256
4 *43:19 0.000148672
5 *43:6 0.000369929
6 *43:19 *222:B 0
7 *43:19 *58:8 9.98891e-05
8 *216:B *43:6 0.000143655
9 *216:C *43:6 7.48648e-05
10 *217:B1 *43:6 6.17437e-06
11 *218:A_N *43:6 5.50106e-05
12 *42:8 *43:6 5.50049e-05
*RES
1 *217:X *43:6 27.9093 
2 *43:6 *218:B 23 
3 *43:6 *43:19 33.2314 
4 *43:19 *233:A1 23 
*END

*D_NET *44 0.000216456
*CONN
*I *222:A I *D sky130_fd_sc_hd__xor2_1
*I *218:X O *D sky130_fd_sc_hd__and2b_1
*CAP
1 *222:A 0.000108228
2 *218:X 0.000108228
3 *222:A *256:A 0
*RES
1 *218:X *222:A 48.0714 
*END

*D_NET *45 0.00246708
*CONN
*I *238:C I *D sky130_fd_sc_hd__and4b_1
*I *243:A2 I *D sky130_fd_sc_hd__a21oi_1
*I *221:B I *D sky130_fd_sc_hd__and3_1
*I *219:X O *D sky130_fd_sc_hd__a21o_1
*CAP
1 *238:C 0.000123695
2 *243:A2 0.000110561
3 *221:B 0
4 *219:X 0
5 *45:12 0.000767143
6 *45:6 0.000780277
7 *238:C *238:B 5.50049e-05
8 *238:C *62:8 2.38288e-05
9 *243:A2 *244:A 5.50106e-05
10 *243:A2 *244:B 0
11 *243:A2 *46:27 2.07921e-05
12 *215:A1 *45:12 0.000126914
13 *243:A1 *243:A2 3.61155e-05
14 *243:A1 *45:12 8.7283e-06
15 *30:10 *238:C 0
16 *36:14 *45:12 0
17 *38:15 *45:12 9.41704e-05
18 *39:39 *45:12 5.94125e-05
19 *40:8 *45:12 4.99753e-06
20 *40:12 *45:12 0.000109216
21 *41:8 *238:C 5.56203e-05
22 *41:8 *45:12 3.55887e-05
*RES
1 *219:X *45:6 38 
2 *45:6 *45:12 24.6736 
3 *45:12 *221:B 23 
4 *45:12 *243:A2 25.7757 
5 *45:6 *238:C 40.6514 
*END

*D_NET *46 0.00317113
*CONN
*I *243:B1 I *D sky130_fd_sc_hd__a21oi_1
*I *221:C I *D sky130_fd_sc_hd__and3_1
*I *238:B I *D sky130_fd_sc_hd__and4b_1
*I *220:X O *D sky130_fd_sc_hd__a21o_1
*CAP
1 *243:B1 0
2 *221:C 0
3 *238:B 0.000234812
4 *220:X 0.000352391
5 *46:40 0.000344652
6 *46:27 8.46643e-05
7 *46:19 0.000767693
8 *46:10 0.000573189
9 *46:8 0.000352391
10 *238:B *62:8 1.07698e-05
11 *46:27 *47:8 4.6318e-06
12 *46:27 *47:23 4.49946e-05
13 *46:40 *255:A 6.17437e-06
14 *46:40 *69:8 0.000138718
15 *238:C *238:B 5.50049e-05
16 *238:D *238:B 2.35426e-05
17 *238:D *46:8 0
18 *243:A1 *46:27 1.95448e-05
19 *243:A2 *46:27 2.07921e-05
20 *36:29 *46:8 0.000137163
21 *36:29 *46:27 0
22 *38:21 *46:8 0
23 *40:8 *46:8 0
*RES
1 *220:X *46:8 44.8357 