*SPEF "ieee 1481-1999"
*DESIGN "SarsaNada_e10_1"
*DATE "11:43:31 Friday September 12, 2025"
*VENDOR "The OpenROAD Project"
*PROGRAM "OpenROAD"
*VERSION "edf00dff99f6c40d67a30c0e22a8191c5d2ed9d6"
*DESIGN_FLOW "NAME_SCOPE LOCAL" "PIN_CAP NONE"
*DIVIDER /
*DELIMITER :
*BUS_DELIMITER []
*T_UNIT 1 NS
*C_UNIT 1 PF
*R_UNIT 1 OHM
*L_UNIT 1 HENRY

*NAME_MAP
*1 A[0]
*2 A[1]
*3 B[0]
*4 B[1]
*5 P[0]
*6 P[1]
*7 P[2]
*8 P[3]
*11 _00_
*12 _01_
*13 _02_
*14 _03_
*15 net1
*16 net2
*17 net3
*18 net4
*19 net5
*20 net6
*21 net7
*22 net8
*23 FILLER_0_15
*24 FILLER_0_27
*25 FILLER_0_29
*26 FILLER_0_3
*27 FILLER_0_35
*28 FILLER_0_41
*29 FILLER_0_48
*30 FILLER_0_57
*31 FILLER_0_69
*32 FILLER_1_15
*33 FILLER_1_27
*34 FILLER_1_3
*35 FILLER_1_39
*36 FILLER_1_51
*37 FILLER_1_55
*38 FILLER_1_57
*39 FILLER_1_69
*40 FILLER_2_15
*41 FILLER_2_27
*42 FILLER_2_29
*43 FILLER_2_3
*44 FILLER_2_41
*45 FILLER_2_53
*46 FILLER_2_65
*47 FILLER_2_77
*48 FILLER_3_15
*49 FILLER_3_27
*50 FILLER_3_3
*51 FILLER_3_33
*52 FILLER_3_40
*53 FILLER_3_52
*54 FILLER_3_57
*55 FILLER_3_69
*56 FILLER_4_15
*57 FILLER_4_27
*58 FILLER_4_29
*59 FILLER_4_3
*60 FILLER_4_41
*61 FILLER_4_53
*62 FILLER_4_65
*63 FILLER_4_77
*64 FILLER_5_15
*65 FILLER_5_27
*66 FILLER_5_3
*67 FILLER_5_35
*68 FILLER_5_41
*69 FILLER_5_53
*70 FILLER_5_57
*71 FILLER_5_69
*72 FILLER_6_15
*73 FILLER_6_27
*74 FILLER_6_29
*75 FILLER_6_3
*76 FILLER_6_35
*77 FILLER_6_41
*78 FILLER_6_53
*79 FILLER_6_65
*80 FILLER_6_77
*81 FILLER_7_15
*82 FILLER_7_27
*83 FILLER_7_3
*84 FILLER_7_47
*85 FILLER_7_55
*86 FILLER_7_57
*87 FILLER_7_69
*88 FILLER_8_15
*89 FILLER_8_27
*90 FILLER_8_29
*91 FILLER_8_3
*92 FILLER_8_33
*93 FILLER_8_51
*94 FILLER_8_63
*95 FILLER_8_75
*96 FILLER_9_15
*97 FILLER_9_27
*98 FILLER_9_29
*99 FILLER_9_3
*100 FILLER_9_34
*101 FILLER_9_41
*102 FILLER_9_49
*103 FILLER_9_57
*104 FILLER_9_63
*105 FILLER_9_75
*106 PHY_EDGE_ROW_0_Left_10
*107 PHY_EDGE_ROW_0_Right_0
*108 PHY_EDGE_ROW_1_Left_11
*109 PHY_EDGE_ROW_1_Right_1
*110 PHY_EDGE_ROW_2_Left_12
*111 PHY_EDGE_ROW_2_Right_2
*112 PHY_EDGE_ROW_3_Left_13
*113 PHY_EDGE_ROW_3_Right_3
*114 PHY_EDGE_ROW_4_Left_14
*115 PHY_EDGE_ROW_4_Right_4
*116 PHY_EDGE_ROW_5_Left_15
*117 PHY_EDGE_ROW_5_Right_5
*118 PHY_EDGE_ROW_6_Left_16
*119 PHY_EDGE_ROW_6_Right_6
*120 PHY_EDGE_ROW_7_Left_17
*121 PHY_EDGE_ROW_7_Right_7
*122 PHY_EDGE_ROW_8_Left_18
*123 PHY_EDGE_ROW_8_Right_8
*124 PHY_EDGE_ROW_9_Left_19
*125 PHY_EDGE_ROW_9_Right_9
*126 TAP_TAPCELL_ROW_0_20
*127 TAP_TAPCELL_ROW_0_21
*128 TAP_TAPCELL_ROW_1_22
*129 TAP_TAPCELL_ROW_2_23
*130 TAP_TAPCELL_ROW_3_24
*131 TAP_TAPCELL_ROW_4_25
*132 TAP_TAPCELL_ROW_5_26
*133 TAP_TAPCELL_ROW_6_27
*134 TAP_TAPCELL_ROW_7_28
*135 TAP_TAPCELL_ROW_8_29
*136 TAP_TAPCELL_ROW_9_30
*137 TAP_TAPCELL_ROW_9_31
*138 _04_
*139 _05_
*140 _06_
*141 _07_
*142 _08_
*143 _09_
*144 _10_
*145 _11_
*146 input1
*147 input2
*148 input3
*149 input4
*150 output5
*151 output6
*152 output7
*153 output8

*PORTS
A[0] I
A[1] I
B[0] I
B[1] I
P[0] O
P[1] O
P[2] O
P[3] O

*D_NET *1 0.00101906
*CONN
*P A[0] I
*I *146:A I *D sky130_fd_sc_hd__clkbuf_1
*CAP
1 A[0] 0.000475287
2 *146:A 0.000475287
3 *146:A P[0] 0
4 *146:A *149:A 0
5 *146:A *150:A 5.52302e-05
6 *146:A *15:10 1.32552e-05
*RES
1 A[0] *146:A 22.7821 
*END

*D_NET *2 0.000930923
*CONN
*P A[1] I
*I *147:A I *D sky130_fd_sc_hd__buf_1
*CAP
1 A[1] 0.000465461
2 *147:A 0.000465461
3 *147:A *148:A 0
*RES
1 A[1] *147:A 23.05 
*END

*D_NET *3 0.00101323
*CONN
*P B[0] I
*I *148:A I *D sky130_fd_sc_hd__clkbuf_1
*CAP
1 B[0] 0.000506617
2 *148:A 0.000506617
3 *148:A P[3] 0
4 *147:A *148:A 0
*RES
1 B[0] *148:A 23.8714 
*END

*D_NET *4 0.000954549
*CONN
*P B[1] I
*I *149:A I *D sky130_fd_sc_hd__clkbuf_1
*CAP
1 B[1] 0.000477275
2 *149:A 0.000477275
3 *146:A *149:A 0
*RES
1 B[1] *149:A 22.9071 
*END

*D_NET *5 0.000880865
*CONN
*P P[0] O
*I *150:X O *D sky130_fd_sc_hd__buf_2
*CAP
1 P[0] 0.000440432
2 *150:X 0.000440432
3 *146:A P[0] 0
*RES
1 *150:X P[0] 21.6393 
*END

*D_NET *6 0.000951893
*CONN
*P P[1] O
*I *151:X O *D sky130_fd_sc_hd__buf_2
*CAP
1 P[1] 0.000475946
2 *151:X 0.000475946
3 P[1] P[2] 0
*RES
1 *151:X P[1] 23.2643 
*END

*D_NET *7 0.000951893
*CONN
*P P[2] O
*I *152:X O *D sky130_fd_sc_hd__buf_2
*CAP
1 P[2] 0.000475946
2 *152:X 0.000475946
3 P[2] P[3] 0
4 P[1] P[2] 0
*RES
1 *152:X P[2] 23.2643 
*END

*D_NET *8 0.000912878
*CONN
*P P[3] O
*I *153:X O *D sky130_fd_sc_hd__buf_2
*CAP
1 P[3] 0.000456439
2 *153:X 0.000456439
3 P[2] P[3] 0
4 *148:A P[3] 0
*RES
1 *153:X P[3] 22.8536 
*END

*D_NET *11 0.00170117
*CONN
*I *145:A2 I *D sky130_fd_sc_hd__o211a_1
*I *142:B I *D sky130_fd_sc_hd__nor2_1
*I *143:C1 I *D sky130_fd_sc_hd__o211a_1
*I *140:A_N I *D sky130_fd_sc_hd__nand2b_1
*I *139:Y O *D sky130_fd_sc_hd__nand2_1
*CAP
1 *145:A2 3.29285e-05
2 *142:B 4.89469e-05
3 *143:C1 1.1624e-05
4 *140:A_N 0
5 *139:Y 8.19955e-05
6 *11:34 0.000238316
7 *11:17 0.000308574
8 *11:8 0.000222505
9 *142:B *145:A1 2.16812e-05
10 *142:B *145:C1 5.45305e-05
11 *142:B *14:42 3.57366e-05
12 *142:B *22:8 9.55684e-05
13 *143:C1 *143:A2 4.18895e-05
14 *143:C1 *143:B1 5.52238e-05
15 *143:C1 *16:20 1.33343e-05
16 *145:A2 *145:A1 6.22883e-05
17 *145:A2 *145:C1 3.41517e-06
18 *145:A2 *22:8 8.60142e-05
19 *11:8 *140:B 4.46186e-06
20 *11:8 *141:B1 3.92757e-05
21 *11:17 *140:B 0.000100521
22 *11:17 *14:12 1.00477e-05
23 *11:34 *145:B1 9.50676e-06
24 *11:34 *145:C1 0.000112056
25 *11:34 *14:12 1.07319e-05
*RES
1 *139:Y *11:8 15.4429 
2 *11:8 *140:A_N 13.8 
3 *11:8 *11:17 2.85714 
4 *11:17 *143:C1 14.3357 
5 *11:17 *11:34 7.41071 
6 *11:34 *142:B 10.8536 
7 *11:34 *145:A2 10.675 
*END

*D_NET *12 0.0013026
*CONN
*I *141:B1 I *D sky130_fd_sc_hd__o21a_1
*I *140:Y O *D sky130_fd_sc_hd__nand2b_1
*CAP
1 *141:B1 0.000401602
2 *140:Y 0.000401602
3 *141:B1 *139:B 0.000395427
4 *141:B1 *140:B 6.05161e-06
5 *141:B1 *141:A2 3.69047e-06
6 *141:B1 *150:A 5.49489e-05
7 *141:B1 *18:36 0
8 *11:8 *141:B1 3.92757e-05
*RES
1 *140:Y *141:B1 35.9929 
*END

*D_NET *13 0.000529737
*CONN
*I *144:B I *D sky130_fd_sc_hd__nor2_1
*I *143:X O *D sky130_fd_sc_hd__o211a_1
*CAP
1 *144:B 0.000261965
2 *143:X 0.000261965
3 *144:B *153:A 5.80706e-06
*RES
1 *143:X *144:B 31.0107 
*END

*D_NET *14 0.00203612
*CONN
*I *145:A1 I *D sky130_fd_sc_hd__o211a_1
*I *142:A I *D sky130_fd_sc_hd__nor2_1
*I *143:B1 I *D sky130_fd_sc_hd__o211a_1
*I *140:B I *D sky130_fd_sc_hd__nand2b_1
*I *138:Y O *D sky130_fd_sc_hd__nand2_1
*CAP
1 *145:A1 0.000248783
2 *142:A 1.41454e-05
3 *143:B1 0.000114056
4 *140:B 0.000159301
5 *138:Y 6.09104e-05
6 *14:42 0.000289661
7 *14:12 0.000394674
8 *14:6 0.00020896
9 *140:B *138:A 0
10 *143:B1 *143:A2 3.25724e-05
11 *143:B1 *16:20 4.13595e-05
12 *145:A1 *145:C1 9.55065e-05
13 *145:A1 *22:8 1.76727e-05
14 *14:12 *145:C1 3.84349e-05
15 *14:42 *22:8 1.33343e-05
16 *141:B1 *140:B 6.05161e-06
17 *142:B *145:A1 2.16812e-05
18 *142:B *14:42 3.57366e-05
19 *143:C1 *143:B1 5.52238e-05
20 *145:A2 *145:A1 6.22883e-05
21 *11:8 *140:B 4.46186e-06
22 *11:17 *140:B 0.000100521
23 *11:17 *14:12 1.00477e-05
24 *11:34 *14:12 1.07319e-05
*RES
1 *138:Y *14:6 10.2464 
2 *14:6 *14:12 6.875 
3 *14:12 *140:B 17.2732 
4 *14:12 *143:B1 15.9964 
5 *14:6 *14:42 0.964286 
6 *14:42 *142:A 9.83571 
7 *14:42 *145:A1 14.2107 
*END

*D_NET *15 0.00232826
*CONN
*I *139:B I *D sky130_fd_sc_hd__nand2_1
*I *141:A2 I *D sky130_fd_sc_hd__o21a_1
*I *146:X O *D sky130_fd_sc_hd__clkbuf_1
*CAP
1 *139:B 0.000168054
2 *141:A2 5.20475e-05
3 *146:X 0.000269364
4 *15:10 0.000489466
5 *139:B *150:A 4.16499e-05
6 *139:B *18:12 0
7 *139:B *18:25 0.00042032
8 *141:A2 *141:A1 6.05161e-06
9 *15:10 *150:A 0.000468933
10 *15:10 *18:12 0
11 *141:B1 *139:B 0.000395427
12 *141:B1 *141:A2 3.69047e-06
13 *146:A *15:10 1.32552e-05
*RES
1 *146:X *15:10 20.2286 
2 *15:10 *141:A2 14.3357 
3 *15:10 *139:B 20.2286 
*END

*D_NET *16 0.00214387
*CONN
*I *138:B I *D sky130_fd_sc_hd__nand2_1
*I *143:A2 I *D sky130_fd_sc_hd__o211a_1
*I *145:C1 I *D sky130_fd_sc_hd__o211a_1
*I *147:X O *D sky130_fd_sc_hd__buf_1
*CAP
1 *138:B 3.7311e-05
2 *143:A2 9.42002e-05
3 *145:C1 0.000200995
4 *147:X 0.000197889
5 *16:20 0.000592443
6 *16:14 0.000532448
7 *145:C1 *138:A 3.53912e-05
8 *145:C1 *145:B1 3.4323e-06
9 *145:C1 *153:A 0
10 *16:14 *138:A 1.4279e-05
11 *16:20 *138:A 2.38651e-06
12 *142:B *145:C1 5.45305e-05
13 *143:B1 *143:A2 3.25724e-05
14 *143:B1 *16:20 4.13595e-05
15 *143:C1 *143:A2 4.18895e-05
16 *143:C1 *16:20 1.33343e-05
17 *145:A1 *145:C1 9.55065e-05
18 *145:A2 *145:C1 3.41517e-06
19 *11:34 *145:C1 0.000112056
20 *14:12 *145:C1 3.84349e-05
*RES
1 *147:X *16:14 16.9429 
2 *16:14 *16:20 9.03571 
3 *16:20 *145:C1 22.5232 
4 *16:20 *143:A2 11.0857 
5 *16:14 *138:B 14.3357 
*END

*D_NET *17 0.000463482
*CONN
*I *138:A I *D sky130_fd_sc_hd__nand2_1
*I *148:X O *D sky130_fd_sc_hd__clkbuf_1
*CAP
1 *138:A 0.000205713
2 *148:X 0.000205713
3 *138:A *153:A 0
4 *140:B *138:A 0
5 *145:C1 *138:A 3.53912e-05
6 *16:14 *138:A 1.4279e-05
7 *16:20 *138:A 2.38651e-06
*RES
1 *148:X *138:A 30.6179 
*END

*D_NET *18 0.00344438
*CONN
*I *145:B1 I *D sky130_fd_sc_hd__o211a_1
*I *143:A1 I *D sky130_fd_sc_hd__o211a_1
*I *139:A I *D sky130_fd_sc_hd__nand2_1
*I *141:A1 I *D sky130_fd_sc_hd__o21a_1
*I *149:X O *D sky130_fd_sc_hd__clkbuf_1
*CAP
1 *145:B1 0.000269986
2 *143:A1 6.18314e-05
3 *139:A 0
4 *141:A1 3.78699e-05
5 *149:X 0.000507479
6 *18:36 0.000763179
7 *18:25 0.000625366
8 *18:12 0.000739354
9 *139:B *18:12 0
10 *139:B *18:25 0.00042032
11 *141:A2 *141:A1 6.05161e-06
12 *141:B1 *18:36 0
13 *145:C1 *145:B1 3.4323e-06
14 *11:34 *145:B1 9.50676e-06
15 *15:10 *18:12 0
*RES
1 *149:X *18:12 26.9786 
2 *18:12 *141:A1 9.83571 
3 *18:12 *18:25 14.2857 
4 *18:25 *139:A 9.3 
5 *18:25 *18:36 11.6607 
6 *18:36 *143:A1 14.7464 
7 *18:36 *145:B1 17.5321 
*END

*D_NET *19 0.00166081
*CONN
*I *150:A I *D sky130_fd_sc_hd__buf_2
*I *141:X O *D sky130_fd_sc_hd__o21a_1
*CAP
1 *150:A 0.000520025
2 *141:X 0.000520025
3 *139:B *150:A 4.16499e-05
4 *141:B1 *150:A 5.49489e-05
5 *146:A *150:A 5.52302e-05
6 *15:10 *150:A 0.000468933
*RES
1 *141:X *150:A 38.7964 
*END

*D_NET *20 0.000913408
*CONN
*I *151:A I *D sky130_fd_sc_hd__buf_2
*I *144:Y O *D sky130_fd_sc_hd__nor2_1
*CAP
1 *151:A 0.000430037
2 *144:Y 0.000430037
3 *151:A *152:A 5.33334e-05
*RES
1 *144:Y *151:A 33.3679 
*END

*D_NET *21 0.000587844
*CONN
*I *152:A I *D sky130_fd_sc_hd__buf_2
*I *145:X O *D sky130_fd_sc_hd__o211a_1
*CAP
1 *152:A 0.000255884
2 *145:X 0.000255884
3 *152:A *153:A 0
4 *152:A *22:8 2.27416e-05
5 *151:A *152:A 5.33334e-05
*RES
1 *145:X *152:A 32.3321 
*END

*D_NET *22 0.001336
*CONN
*I *144:A I *D sky130_fd_sc_hd__nor2_1
*I *153:A I *D sky130_fd_sc_hd__buf_2
*I *142:Y O *D sky130_fd_sc_hd__nor2_1
*CAP
1 *144:A 0
2 *153:A 0.000164101
3 *142:Y 0.000383331
4 *22:8 0.000547432
5 *138:A *153:A 0
6 *142:B *22:8 9.55684e-05
7 *144:B *153:A 5.80706e-06
8 *145:A1 *22:8 1.76727e-05
9 *145:A2 *22:8 8.60142e-05
10 *145:C1 *153:A 0
11 *152:A *153:A 0
12 *152:A *22:8 2.27416e-05
13 *14:42 *22:8 1.33343e-05
*RES
1 *142:Y *22:8 14.2643 
2 *22:8 *153:A 21.1571 
3 *22:8 *144:A 9.3 
*END
