*SPEF "ieee 1481-1999"
*DESIGN "SARSA_VENTAJA_e4"
*DATE "13:58:23 Tuesday September 16, 2025"
*VENDOR "The OpenROAD Project"
*PROGRAM "OpenROAD"
*VERSION "edf00dff99f6c40d67a30c0e22a8191c5d2ed9d6"
*DESIGN_FLOW "NAME_SCOPE LOCAL" "PIN_CAP NONE"
*DIVIDER /
*DELIMITER :
*BUS_DELIMITER []
*T_UNIT 1 NS
*C_UNIT 1 PF
*R_UNIT 1 OHM
*L_UNIT 1 HENRY

*NAME_MAP
*1 A[0]
*2 A[1]
*3 B[0]
*4 B[1]
*5 P[0]
*6 net7
*7 P[2]
*8 net6
*11 net1
*12 net2
*13 net3
*14 net4
*15 net5
*16 pp1
*17 pp3
*18 FILLER_0_15
*19 FILLER_0_27
*20 FILLER_0_29
*21 FILLER_0_3
*22 FILLER_0_41
*23 FILLER_0_53
*24 FILLER_0_57
*25 FILLER_0_69
*26 FILLER_1_15
*27 FILLER_1_27
*28 FILLER_1_3
*29 FILLER_1_39
*30 FILLER_1_51
*31 FILLER_1_55
*32 FILLER_1_57
*33 FILLER_1_69
*34 FILLER_2_15
*35 FILLER_2_27
*36 FILLER_2_29
*37 FILLER_2_3
*38 FILLER_2_41
*39 FILLER_2_53
*40 FILLER_2_65
*41 FILLER_2_77
*42 FILLER_3_15
*43 FILLER_3_27
*44 FILLER_3_3
*45 FILLER_3_39
*46 FILLER_3_51
*47 FILLER_3_55
*48 FILLER_3_57
*49 FILLER_3_69
*50 FILLER_4_18
*51 FILLER_4_25
*52 FILLER_4_29
*53 FILLER_4_41
*54 FILLER_4_53
*55 FILLER_4_6
*56 FILLER_4_65
*57 FILLER_5_10
*58 FILLER_5_25
*59 FILLER_5_37
*60 FILLER_5_49
*61 FILLER_5_55
*62 FILLER_5_57
*63 FILLER_5_6
*64 FILLER_5_69
*65 FILLER_6_18
*66 FILLER_6_26
*67 FILLER_6_29
*68 FILLER_6_41
*69 FILLER_6_53
*70 FILLER_6_6
*71 FILLER_6_65
*72 FILLER_6_77
*73 FILLER_7_18
*74 FILLER_7_30
*75 FILLER_7_42
*76 FILLER_7_54
*77 FILLER_7_57
*78 FILLER_7_6
*79 FILLER_7_69
*80 FILLER_8_15
*81 FILLER_8_27
*82 FILLER_8_29
*83 FILLER_8_3
*84 FILLER_8_41
*85 FILLER_8_53
*86 FILLER_8_65
*87 FILLER_8_77
*88 FILLER_9_15
*89 FILLER_9_27
*90 FILLER_9_29
*91 FILLER_9_3
*92 FILLER_9_41
*93 FILLER_9_53
*94 FILLER_9_57
*95 FILLER_9_69
*96 PHY_EDGE_ROW_0_Left_10
*97 PHY_EDGE_ROW_0_Right_0
*98 PHY_EDGE_ROW_1_Left_11
*99 PHY_EDGE_ROW_1_Right_1
*100 PHY_EDGE_ROW_2_Left_12
*101 PHY_EDGE_ROW_2_Right_2
*102 PHY_EDGE_ROW_3_Left_13
*103 PHY_EDGE_ROW_3_Right_3
*104 PHY_EDGE_ROW_4_Left_14
*105 PHY_EDGE_ROW_4_Right_4
*106 PHY_EDGE_ROW_5_Left_15
*107 PHY_EDGE_ROW_5_Right_5
*108 PHY_EDGE_ROW_6_Left_16
*109 PHY_EDGE_ROW_6_Right_6
*110 PHY_EDGE_ROW_7_Left_17
*111 PHY_EDGE_ROW_7_Right_7
*112 PHY_EDGE_ROW_8_Left_18
*113 PHY_EDGE_ROW_8_Right_8
*114 PHY_EDGE_ROW_9_Left_19
*115 PHY_EDGE_ROW_9_Right_9
*116 SARSA_VENTAJA_e4_6
*117 SARSA_VENTAJA_e4_7
*118 TAP_TAPCELL_ROW_0_20
*119 TAP_TAPCELL_ROW_0_21
*120 TAP_TAPCELL_ROW_1_22
*121 TAP_TAPCELL_ROW_2_23
*122 TAP_TAPCELL_ROW_3_24
*123 TAP_TAPCELL_ROW_4_25
*124 TAP_TAPCELL_ROW_5_26
*125 TAP_TAPCELL_ROW_6_27
*126 TAP_TAPCELL_ROW_7_28
*127 TAP_TAPCELL_ROW_8_29
*128 TAP_TAPCELL_ROW_9_30
*129 TAP_TAPCELL_ROW_9_31
*130 _0_
*131 _1_
*132 _4_
*133 _5_
*134 input1
*135 input2
*136 input3
*137 output4
*138 output5

*PORTS
A[0] I
A[1] I
B[0] I
B[1] I
P[0] O
P[1] O
P[2] O
P[3] O

*D_NET *2 0.000616196
*CONN
*P A[1] I
*I *134:A I *D sky130_fd_sc_hd__clkbuf_1
*CAP
1 A[1] 0.000297475
2 *134:A 0.000297475
3 *134:A *135:A 2.12457e-05
*RES
1 A[1] *134:A 49.8062 
*END

*D_NET *3 0.000565793
*CONN
*P B[0] I
*I *135:A I *D sky130_fd_sc_hd__clkbuf_1
*CAP
1 B[0] 0.000258318
2 *135:A 0.000258318
3 *135:A *4:17 2.79122e-05
4 *135:A *11:10 0
5 *134:A *135:A 2.12457e-05
*RES
1 B[0] *135:A 47.7832 
*END

*D_NET *4 0.00071699
*CONN
*P B[1] I
*I *136:A I *D sky130_fd_sc_hd__clkbuf_1
*CAP
1 B[1] 0.000330094
2 *136:A 0
3 *4:17 0.000330094
4 *4:17 P[1] 2.88889e-05
5 *135:A *4:17 2.79122e-05
*RES
1 B[1] *4:17 27.8627 
2 *4:17 *136:A 23 
*END

*D_NET *5 0.000673721
*CONN
*P P[0] O
*I *137:X O *D sky130_fd_sc_hd__buf_2
*CAP
1 P[0] 0.000293173
2 *137:X 0.000293173
3 P[0] P[2] 8.73764e-05
*RES
1 *137:X P[0] 48.5734 
*END

*D_NET *6 0.000744138
*CONN
*P P[1] O
*I *117:HI O *D sky130_fd_sc_hd__conb_1
*CAP
1 P[1] 9.93892e-05
2 *117:HI 0.000258235
3 *6:10 0.000357624
4 *4:17 P[1] 2.88889e-05
*RES
1 *117:HI *6:10 42.0289 
2 *6:10 P[1] 8.4816 
*END

*D_NET *7 0.000615035
*CONN
*P P[2] O
*I *138:X O *D sky130_fd_sc_hd__buf_2
*CAP
1 P[2] 0.000223522
2 *138:X 0.000223522
3 P[2] P[3] 8.06147e-05
4 P[0] P[2] 8.73764e-05
*RES
1 *138:X P[2] 47.8691 
*END

*D_NET *8 0.00052467
*CONN
*P P[3] O
*I *116:LO O *D sky130_fd_sc_hd__conb_1
*CAP
1 P[3] 0.000222028
2 *116:LO 0.000222028
3 P[2] P[3] 8.06147e-05
*RES
1 *116:LO P[3] 47.7832 
*END

*D_NET *11 0.00152016
*CONN
*I *131:A I *D sky130_fd_sc_hd__and2_1
*I *130:A_N I *D sky130_fd_sc_hd__and2b_1
*I *134:X O *D sky130_fd_sc_hd__clkbuf_1
*CAP
1 *131:A 0.000107622
2 *130:A_N 0
3 *134:X 0.000483951
4 *11:12 0.000107622
5 *11:10 0.000483951
6 *131:A *13:8 0.000290032
7 *131:A *16:10 1.73399e-05
8 *11:10 *12:10 2.96369e-05
9 *135:A *11:10 0
*RES
1 *134:X *11:10 45.3743 
2 *11:10 *11:12 15 
3 *11:12 *130:A_N 23 
4 *11:12 *131:A 26.5007 
*END

*D_NET *12 0.00104346
*CONN
*I *130:B I *D sky130_fd_sc_hd__and2b_1
*I *135:X O *D sky130_fd_sc_hd__clkbuf_1
*CAP
1 *130:B 0
2 *135:X 0.000506913
3 *12:10 0.000506913
4 *11:10 *12:10 2.96369e-05
*RES
1 *135:X *12:10 45.0429 
2 *12:10 *130:B 38 
*END

*D_NET *13 0.00130644
*CONN
*I *131:B I *D sky130_fd_sc_hd__and2_1
*I *136:X O *D sky130_fd_sc_hd__clkbuf_1
*CAP
1 *131:B 0
2 *136:X 0.000503058
3 *13:8 0.000503058
4 *13:8 *16:10 1.02949e-05
5 *131:A *13:8 0.000290032
*RES
1 *136:X *13:8 30.6643 
2 *13:8 *131:B 23 
*END

*D_NET *14 0.00299442
*CONN
*I *137:A I *D sky130_fd_sc_hd__buf_2
*I *132:X O *D sky130_fd_sc_hd__clkbuf_1
*CAP
1 *137:A 0
2 *132:X 0.00149721
3 *14:10 0.00149721
*RES
1 *132:X *14:10 49.39 
2 *14:10 *137:A 23 
*END

*D_NET *15 0.00304243
*CONN
*I *138:A I *D sky130_fd_sc_hd__buf_2
*I *133:X O *D sky130_fd_sc_hd__clkbuf_1
*CAP
1 *138:A 0
2 *133:X 0.00152122
3 *15:10 0.00152122
*RES
1 *133:X *15:10 49.39 
2 *15:10 *138:A 23 
*END

*D_NET *16 0.000725419
*CONN
*I *132:A I *D sky130_fd_sc_hd__clkbuf_1
*I *130:X O *D sky130_fd_sc_hd__and2b_1
*CAP
1 *132:A 0
2 *130:X 0.000339158
3 *16:10 0.000339158
4 *16:10 *133:A 1.94693e-05
5 *131:A *16:10 1.73399e-05
6 *13:8 *16:10 1.02949e-05
*RES
1 *130:X *16:10 43.2614 
2 *16:10 *132:A 38 
*END

*D_NET *17 7.93985e-05
*CONN
*I *133:A I *D sky130_fd_sc_hd__clkbuf_1
*I *131:X O *D sky130_fd_sc_hd__and2_1
*CAP
1 *133:A 2.99646e-05
2 *131:X 2.99646e-05
3 *16:10 *133:A 1.94693e-05
*RES
1 *131:X *133:A 46.6214 
*END
