*SPEF "ieee 1481-1999"
*DESIGN "mult4_SarsaNada_e6_SARSA_RUIDO_e9_SARSA_RUIDO_e9_SARSA_RUIDO_e9"
*DATE "14:36:52 Tuesday September 16, 2025"
*VENDOR "The OpenROAD Project"
*PROGRAM "OpenROAD"
*VERSION "edf00dff99f6c40d67a30c0e22a8191c5d2ed9d6"
*DESIGN_FLOW "NAME_SCOPE LOCAL" "PIN_CAP NONE"
*DIVIDER /
*DELIMITER :
*BUS_DELIMITER []
*T_UNIT 1 NS
*C_UNIT 1 PF
*R_UNIT 1 OHM
*L_UNIT 1 HENRY

*NAME_MAP
*1 A[0]
*2 A[1]
*3 A[2]
*4 A[3]
*5 B[0]
*6 B[1]
*7 B[2]
*8 B[3]
*9 P[0]
*10 P[1]
*11 P[2]
*12 P[3]
*13 P[4]
*14 P[5]
*15 P[6]
*16 P[7]
*19 _00_
*20 _01_
*21 _02_
*22 _03_
*23 _04_
*24 _05_
*25 _06_
*26 _07_
*27 _08_
*28 _09_
*29 _10_
*30 _11_
*31 _12_
*32 _13_
*33 _14_
*34 _15_
*35 _16_
*36 _17_
*37 _18_
*38 _19_
*39 _20_
*40 _21_
*41 _22_
*42 _23_
*43 _24_
*44 _25_
*45 _26_
*46 _27_
*47 _28_
*48 _29_
*49 _30_
*50 _31_
*51 _32_
*52 _33_
*53 _34_
*54 _35_
*55 _36_
*56 mul_ll\.pp1
*57 net1
*58 net10
*59 net11
*60 net12
*61 net13
*62 net14
*63 net15
*64 net16
*65 net2
*66 net3
*67 net4
*68 net5
*69 net6
*70 net7
*71 net8
*72 net9
*73 FILLER_0_11
*74 FILLER_0_21
*75 FILLER_0_3
*76 FILLER_0_44
*77 FILLER_0_57
*78 FILLER_0_69
*79 FILLER_1_15
*80 FILLER_1_3
*81 FILLER_1_50
*82 FILLER_1_66
*83 FILLER_1_78
*84 FILLER_2_13
*85 FILLER_2_29
*86 FILLER_2_43
*87 FILLER_2_55
*88 FILLER_2_63
*89 FILLER_2_69
*90 FILLER_3_11
*91 FILLER_3_3
*92 FILLER_3_34
*93 FILLER_3_46
*94 FILLER_3_54
*95 FILLER_3_60
*96 FILLER_3_65
*97 FILLER_3_77
*98 FILLER_4_10
*99 FILLER_4_29
*100 FILLER_4_41
*101 FILLER_4_49
*102 FILLER_4_6
*103 FILLER_4_72
*104 FILLER_4_80
*105 FILLER_5_13
*106 FILLER_5_27
*107 FILLER_5_39
*108 FILLER_5_51
*109 FILLER_5_55
*110 FILLER_5_57
*111 FILLER_5_65
*112 FILLER_5_70
*113 FILLER_5_76
*114 FILLER_6_10
*115 FILLER_6_15
*116 FILLER_6_21
*117 FILLER_6_27
*118 FILLER_6_32
*119 FILLER_6_44
*120 FILLER_6_50
*121 FILLER_6_58
*122 FILLER_6_68
*123 FILLER_6_80
*124 FILLER_7_22
*125 FILLER_7_26
*126 FILLER_7_3
*127 FILLER_7_41
*128 FILLER_7_54
*129 FILLER_7_57
*130 FILLER_7_63
*131 FILLER_7_69
*132 FILLER_8_15
*133 FILLER_8_27
*134 FILLER_8_3
*135 FILLER_8_36
*136 FILLER_8_44
*137 FILLER_8_53
*138 FILLER_8_65
*139 FILLER_8_7
*140 FILLER_8_77
*141 FILLER_9_19
*142 FILLER_9_27
*143 FILLER_9_29
*144 FILLER_9_41
*145 FILLER_9_49
*146 FILLER_9_57
*147 FILLER_9_69
*148 FILLER_9_7
*149 PHY_EDGE_ROW_0_Left_10
*150 PHY_EDGE_ROW_0_Right_0
*151 PHY_EDGE_ROW_1_Left_11
*152 PHY_EDGE_ROW_1_Right_1
*153 PHY_EDGE_ROW_2_Left_12
*154 PHY_EDGE_ROW_2_Right_2
*155 PHY_EDGE_ROW_3_Left_13
*156 PHY_EDGE_ROW_3_Right_3
*157 PHY_EDGE_ROW_4_Left_14
*158 PHY_EDGE_ROW_4_Right_4
*159 PHY_EDGE_ROW_5_Left_15
*160 PHY_EDGE_ROW_5_Right_5
*161 PHY_EDGE_ROW_6_Left_16
*162 PHY_EDGE_ROW_6_Right_6
*163 PHY_EDGE_ROW_7_Left_17
*164 PHY_EDGE_ROW_7_Right_7
*165 PHY_EDGE_ROW_8_Left_18
*166 PHY_EDGE_ROW_8_Right_8
*167 PHY_EDGE_ROW_9_Left_19
*168 PHY_EDGE_ROW_9_Right_9
*169 TAP_TAPCELL_ROW_0_20
*170 TAP_TAPCELL_ROW_0_21
*171 TAP_TAPCELL_ROW_1_22
*172 TAP_TAPCELL_ROW_2_23
*173 TAP_TAPCELL_ROW_3_24
*174 TAP_TAPCELL_ROW_4_25
*175 TAP_TAPCELL_ROW_5_26
*176 TAP_TAPCELL_ROW_6_27
*177 TAP_TAPCELL_ROW_7_28
*178 TAP_TAPCELL_ROW_8_29
*179 TAP_TAPCELL_ROW_9_30
*180 TAP_TAPCELL_ROW_9_31
*181 _37_
*182 _38_
*183 _39_
*184 _40_
*185 _41_
*186 _42_
*187 _43_
*188 _44_
*189 _45_
*190 _46_
*191 _47_
*192 _48_
*193 _49_
*194 _50_
*195 _51_
*196 _52_
*197 _53_
*198 _54_
*199 _55_
*200 _56_
*201 _57_
*202 _58_
*203 _59_
*204 _60_
*205 _61_
*206 _62_
*207 _63_
*208 _64_
*209 _65_
*210 _66_
*211 _67_
*212 _68_
*213 _69_
*214 _70_
*215 _71_
*216 _72_
*217 _73_
*218 _74_
*219 _75_
*220 _76_
*221 _77_
*222 _78_
*223 _79_
*224 _80_
*225 _81_
*226 _82_
*227 input1
*228 input2
*229 input3
*230 input4
*231 input5
*232 input6
*233 input7
*234 input8
*235 output10
*236 output11
*237 output12
*238 output13
*239 output14
*240 output15
*241 output16
*242 output9

*PORTS
A[0] I
A[1] I
A[2] I
A[3] I
B[0] I
B[1] I
B[2] I
B[3] I
P[0] O
P[1] O
P[2] O
P[3] O
P[4] O
P[5] O
P[6] O
P[7] O

*D_NET *1 0.0018854
*CONN
*P A[0] I
*I *227:A I *D sky130_fd_sc_hd__buf_1
*CAP
1 A[0] 0.000598469
2 *227:A 0.000598469
3 *227:A *182:C 0.000161529
4 *227:A *182:D 4.60584e-05
5 *227:A *184:A 1.34503e-05
6 *227:A *228:A 0.00011577
7 *227:A *231:A 0
8 *227:A *232:A 8.65961e-05
9 *227:A *57:8 6.52265e-05
10 *227:A *65:8 0.000199833
*RES
1 A[0] *227:A 15.63 
*END

*D_NET *2 0.00121259
*CONN
*P A[1] I
*I *228:A I *D sky130_fd_sc_hd__dlymetal6s2s_1
*CAP
1 A[1] 0.000464319
2 *228:A 0.000464319
3 *228:A *182:C 0
4 *228:A *184:A 4.99619e-05
5 *228:A *232:A 0
6 *228:A *19:6 4.21973e-05
7 *228:A *57:14 2.97004e-06
8 *228:A *65:16 7.30547e-05
9 *227:A *228:A 0.00011577
*RES
1 A[1] *228:A 12.54 
*END

*D_NET *3 0.000597356
*CONN
*P A[2] I
*I *229:A I *D sky130_fd_sc_hd__dlymetal6s2s_1
*CAP
1 A[2] 0.000287919
2 *229:A 0.000287919
3 *229:A *233:A 2.15176e-05
*RES
1 A[2] *229:A 7.3443 
*END

*D_NET *4 0.000717721
*CONN
*P A[3] I
*I *230:A I *D sky130_fd_sc_hd__buf_1
*CAP
1 A[3] 0.000312682
2 *230:A 0.000312682
3 *230:A P[7] 5.43462e-05
4 *230:A *202:B1 0
5 *230:A *234:A 2.85068e-05
6 *230:A *241:A 9.50342e-06
*RES
1 A[3] *230:A 5.58983 
*END

*D_NET *5 0.00161288
*CONN
*P B[0] I
*I *231:A I *D sky130_fd_sc_hd__buf_1
*CAP
1 B[0] 0.000664042
2 *231:A 0.000664042
3 *231:A P[0] 1.08758e-05
4 *231:A P[1] 8.65961e-05
5 *231:A *184:A 3.45679e-05
6 *231:A *184:B 4.89295e-05
7 *231:A *235:A 8.64421e-05
8 *231:A *68:18 1.7386e-05
9 *227:A *231:A 0
*RES
1 B[0] *231:A 14.94 
*END

*D_NET *6 0.000948421
*CONN
*P B[1] I
*I *232:A I *D sky130_fd_sc_hd__clkbuf_2
*CAP
1 B[1] 0.000387615
2 *232:A 0.000387615
3 *232:A *182:C 0
4 *232:A *57:8 8.65961e-05
5 *227:A *232:A 8.65961e-05
6 *228:A *232:A 0
*RES
1 B[1] *232:A 10.695 
*END

*D_NET *7 0.000645751
*CONN
*P B[2] I
*I *233:A I *D sky130_fd_sc_hd__buf_1
*CAP
1 B[2] 0.000297298
2 *233:A 0.000297298
3 *233:A *234:A 2.96366e-05
4 *229:A *233:A 2.15176e-05
*RES
1 B[2] *233:A 7.8543 
*END

*D_NET *8 0.000595152
*CONN
*P B[3] I
*I *234:A I *D sky130_fd_sc_hd__dlymetal6s2s_1
*CAP
1 B[3] 0.000268504
2 *234:A 0.000268504
3 *230:A *234:A 2.85068e-05
4 *233:A *234:A 2.96366e-05
*RES
1 B[3] *234:A 7.3443 
*END

*D_NET *9 0.00088405
*CONN
*P P[0] O
*I *242:X O *D sky130_fd_sc_hd__buf_2
*CAP
1 P[0] 0.000436587
2 *242:X 0.000436587
3 P[0] P[1] 0
4 *231:A P[0] 1.08758e-05
*RES
1 *242:X P[0] 10.53 
*END

*D_NET *10 0.000914902
*CONN
*P P[1] O
*I *235:X O *D sky130_fd_sc_hd__buf_2
*CAP
1 P[1] 0.000414153
2 *235:X 0.000414153
3 P[0] P[1] 0
4 *231:A P[1] 8.65961e-05
*RES
1 *235:X P[1] 10.74 
*END

*D_NET *11 0.000474799
*CONN
*P P[2] O
*I *236:X O *D sky130_fd_sc_hd__buf_2
*CAP
1 P[2] 0.000237399
2 *236:X 0.000237399
3 P[2] P[3] 0
*RES
1 *236:X P[2] 5.16003 
*END

*D_NET *12 0.000516925
*CONN
*P P[3] O
*I *237:X O *D sky130_fd_sc_hd__buf_2
*CAP
1 P[3] 0.000258463
2 *237:X 0.000258463
3 P[3] P[4] 0
4 P[3] *35:8 0
5 P[2] P[3] 0
*RES
1 *237:X P[3] 5.41503 
*END

*D_NET *13 0.000444803
*CONN
*P P[4] O
*I *238:X O *D sky130_fd_sc_hd__buf_2
*CAP
1 P[4] 0.000222401
2 *238:X 0.000222401
3 P[3] P[4] 0
*RES
1 *238:X P[4] 4.90503 
*END

*D_NET *14 0.000894056
*CONN
*P P[5] O
*I *239:X O *D sky130_fd_sc_hd__buf_2
*CAP
1 P[5] 0.000447028
2 *239:X 0.000447028
*RES
1 *239:X P[5] 11.55 
*END

*D_NET *15 0.000606031
*CONN
*P P[6] O
*I *240:X O *D sky130_fd_sc_hd__buf_2
*CAP
1 P[6] 0.000255814
2 *240:X 0.000255814
3 P[6] P[7] 5.38666e-05
4 P[6] *240:A 4.05358e-05
*RES
1 *240:X P[6] 5.92503 
*END

*D_NET *16 0.000697915
*CONN
*P P[7] O
*I *241:X O *D sky130_fd_sc_hd__buf_2
*CAP
1 P[7] 0.000294851
2 *241:X 0.000294851
3 P[7] *241:A 0
4 P[6] P[7] 5.38666e-05
5 *230:A P[7] 5.43462e-05
*RES
1 *241:X P[7] 7.17697 
*END

*D_NET *19 0.0028448
*CONN
*I *197:B1 I *D sky130_fd_sc_hd__o21ai_1
*I *187:C_N I *D sky130_fd_sc_hd__or3b_1
*I *188:A3 I *D sky130_fd_sc_hd__a32o_1
*I *184:A I *D sky130_fd_sc_hd__and2_1
*I *182:Y O *D sky130_fd_sc_hd__nand4_1
*CAP
1 *197:B1 0.000104743
2 *187:C_N 1.95087e-05
3 *188:A3 0
4 *184:A 0.000288527
5 *182:Y 6.26617e-05
6 *19:42 0.000258088
7 *19:29 0.000275307
8 *19:6 0.000492659
9 *184:A *65:8 2.39981e-05
10 *187:C_N *21:14 3.50152e-06
11 *197:B1 *197:A1 0.000161101
12 *197:B1 *197:A2 8.62024e-05
13 *197:B1 *21:14 5.93081e-05
14 *197:B1 *22:6 9.47017e-05
15 *197:B1 *32:12 2.86975e-05
16 *19:29 *182:A 0.000143047
17 *19:29 *183:B1 8.23457e-05
18 *19:29 *65:16 3.86529e-05
19 *19:42 *182:A 3.25831e-05
20 *19:42 *186:A 4.82863e-05
21 *19:42 *21:14 0.000110623
22 *19:42 *22:6 0.000138138
23 *19:42 *57:25 7.26629e-05
24 *19:42 *57:40 1.1561e-05
25 *19:42 *65:16 1.26626e-05
26 *19:42 *65:31 5.2089e-05
27 *19:42 *66:10 2.97004e-06
28 *227:A *184:A 1.34503e-05
29 *228:A *184:A 4.99619e-05
30 *228:A *19:6 4.21973e-05
31 *231:A *184:A 3.45679e-05
*RES
1 *182:Y *19:6 2.395 
2 *19:6 *184:A 6.22 
3 *19:6 *19:29 8.535 
4 *19:29 *188:A3 3.6 
5 *19:29 *19:42 6.32 
6 *19:42 *187:C_N 1.96 
7 *19:42 *197:B1 5.155 
*END

*D_NET *20 0.000754268
*CONN
*I *184:B I *D sky130_fd_sc_hd__and2_1
*I *183:X O *D sky130_fd_sc_hd__a22o_1
*CAP
1 *184:B 0.00028088
2 *183:X 0.00028088
3 *184:B *181:A_N 2.79137e-05
4 *184:B *181:B 8.7695e-05
5 *184:B *68:20 2.05056e-05
6 *184:B *68:33 7.46328e-06
7 *231:A *184:B 4.89295e-05
*RES
1 *183:X *184:B 11.115 
*END

*D_NET *21 0.00339325
*CONN
*I *204:A I *D sky130_fd_sc_hd__nor2_1
*I *205:A1 I *D sky130_fd_sc_hd__o21ai_1
*I *197:A1 I *D sky130_fd_sc_hd__o21ai_1
*I *187:A I *D sky130_fd_sc_hd__or3b_1
*I *185:Y O *D sky130_fd_sc_hd__nand2_1
*CAP
1 *204:A 0.000263501
2 *205:A1 9.60877e-05
3 *197:A1 6.60456e-05
4 *187:A 0
5 *185:Y 3.14937e-05
6 *21:30 0.000479729
7 *21:14 0.000345351
8 *21:8 0.00043094
9 *204:A *214:A2 4.66826e-05
10 *204:A *214:B1 5.34747e-05
11 *204:A *70:21 1.03323e-05
12 *205:A1 *201:A 0
13 *205:A1 *201:B 0
14 *205:A1 *214:A2 5.83121e-06
15 *205:A1 *214:A3 5.66292e-05
16 *21:8 *185:A 7.23533e-05
17 *21:8 *202:A1 3.09233e-05
18 *21:8 *69:50 9.30717e-05
19 *21:14 *186:A 4.82863e-05
20 *21:14 *186:B 0.0001249
21 *21:14 *65:31 0.0001947
22 *21:14 *66:10 6.1357e-05
23 *21:30 *201:B 8.53113e-06
24 *21:30 *202:A1 0.000223727
25 *21:30 *202:B1 0
26 *21:30 *66:46 0.000116151
27 *21:30 *69:50 0.000185411
28 *21:30 *70:25 1.32017e-05
29 *187:C_N *21:14 3.50152e-06
30 *197:B1 *197:A1 0.000161101
31 *197:B1 *21:14 5.93081e-05
32 *19:42 *21:14 0.000110623
*RES
1 *185:Y *21:8 4.725 
2 *21:8 *21:14 7.985 
3 *21:14 *187:A 1.6 
4 *21:14 *197:A1 3.085 
5 *21:8 *21:30 5.93 
6 *21:30 *205:A1 3.115 
7 *21:30 *204:A 5.08 
*END

*D_NET *22 0.00107492
*CONN
*I *197:A2 I *D sky130_fd_sc_hd__o21ai_1
*I *187:B I *D sky130_fd_sc_hd__or3b_1
*I *186:Y O *D sky130_fd_sc_hd__nand2_1
*CAP
1 *197:A2 0.000112016
2 *187:B 0
3 *186:Y 0.000265924
4 *22:6 0.00037794
5 *197:B1 *197:A2 8.62024e-05
6 *197:B1 *22:6 9.47017e-05
7 *19:42 *22:6 0.000138138
*RES
1 *186:Y *22:6 5.155 
2 *22:6 *187:B 1.6 
3 *22:6 *197:A2 3.085 
*END

*D_NET *23 0.00236549
*CONN
*I *190:A1 I *D sky130_fd_sc_hd__a21oi_1
*I *191:A I *D sky130_fd_sc_hd__and3_1
*I *187:X O *D sky130_fd_sc_hd__or3b_1
*CAP
1 *190:A1 0.000171114
2 *191:A 0
3 *187:X 0.000180152
4 *23:12 0.000351266
5 *190:A1 *190:B1 0.000156537
6 *190:A1 *25:14 8.21781e-05
7 *23:12 *189:B 0.000290905
8 *23:12 *226:A 1.61831e-05
9 *23:12 *24:14 0.00069047
10 *23:12 *25:14 0.000361506
11 *23:12 *57:25 0
12 *23:12 *68:18 4.21518e-05
13 *23:12 *68:20 2.30292e-05
*RES
1 *187:X *23:12 13.385 
2 *23:12 *191:A 1.6 
3 *23:12 *190:A1 4.135 
*END

*D_NET *24 0.0032452
*CONN
*I *190:A2 I *D sky130_fd_sc_hd__a21oi_1
*I *191:B I *D sky130_fd_sc_hd__and3_1
*I *188:X O *D sky130_fd_sc_hd__a32o_1
*CAP
1 *190:A2 7.81306e-05
2 *191:B 0
3 *188:X 0.000907944
4 *24:14 0.000986075
5 *190:A2 *190:B1 0.000108251
6 *190:A2 *25:14 2.78536e-05
7 *190:A2 *27:10 3.00381e-05
8 *24:14 *182:A 0.000162688
9 *24:14 *25:14 4.38404e-05
10 *24:14 *27:10 0
11 *24:14 *68:18 0
12 *24:14 *68:20 1.09302e-05
13 *24:14 *68:33 0.00019898
14 *23:12 *24:14 0.00069047
*RES
1 *188:X *24:14 17.885 
2 *24:14 *191:B 1.6 
3 *24:14 *190:A2 3.61 
*END

*D_NET *25 0.00156297
*CONN
*I *190:B1 I *D sky130_fd_sc_hd__a21oi_1
*I *191:C I *D sky130_fd_sc_hd__and3_1
*I *189:X O *D sky130_fd_sc_hd__and2_1
*CAP
1 *190:B1 7.65574e-05
2 *191:C 0
3 *189:X 0.000230855
4 *25:14 0.000307412
5 *190:B1 *27:10 1.34503e-05
6 *25:14 *226:A 0.000103787
7 *25:14 *242:A 5.07419e-05
8 *190:A1 *190:B1 0.000156537
9 *190:A1 *25:14 8.21781e-05
10 *190:A2 *190:B1 0.000108251
11 *190:A2 *25:14 2.78536e-05
12 *23:12 *25:14 0.000361506
13 *24:14 *25:14 4.38404e-05
*RES
1 *189:X *25:14 7.69 
2 *25:14 *191:C 1.6 
3 *25:14 *190:B1 3.715 
*END

*D_NET *26 0.000456425
*CONN
*I *192:A I *D sky130_fd_sc_hd__nor2_1
*I *190:Y O *D sky130_fd_sc_hd__a21oi_1
*CAP
1 *192:A 0.000146186
2 *190:Y 0.000146186
3 *192:A *192:B 4.82919e-05
4 *192:A *27:10 9.86611e-05
5 *192:A *27:23 1.71013e-05
*RES
1 *190:Y *192:A 10.05 
*END

*D_NET *27 0.00185585
*CONN
*I *200:A I *D sky130_fd_sc_hd__and3_1
*I *223:B1 I *D sky130_fd_sc_hd__a21oi_1
*I *192:B I *D sky130_fd_sc_hd__nor2_1
*I *191:X O *D sky130_fd_sc_hd__and3_1
*CAP
1 *200:A 0.00013161
2 *223:B1 5.05039e-05
3 *192:B 0.000142302
4 *191:X 0.000152583
5 *27:23 0.000336892
6 *27:10 0.000449663
7 *192:B *236:A 3.00381e-05
8 *200:A *199:A1 1.85674e-05
9 *200:A *199:A2 7.00889e-06
10 *200:A *199:B1_N 4.85494e-05
11 *200:A *200:C 0.000123225
12 *200:A *223:A2 0.000117825
13 *200:A *31:12 0
14 *223:B1 *224:B 3.00381e-05
15 *27:23 *223:A2 9.50342e-06
16 *27:23 *224:B 0
17 *190:A2 *27:10 3.00381e-05
18 *190:B1 *27:10 1.34503e-05
19 *192:A *192:B 4.82919e-05
20 *192:A *27:10 9.86611e-05
21 *192:A *27:23 1.71013e-05
22 *24:14 *27:10 0
*RES
1 *191:X *27:10 6.54 
2 *27:10 *192:B 5.79 
3 *27:10 *27:23 2.655 
4 *27:23 *223:B1 4.5 
5 *27:23 *200:A 6.825 
*END

*D_NET *28 0.000644513
*CONN
*I *215:B1 I *D sky130_fd_sc_hd__a21oi_1
*I *193:Y O *D sky130_fd_sc_hd__nand2_1
*CAP
1 *215:B1 0.000192362
2 *193:Y 0.000192362
3 *215:B1 *193:A 1.7386e-05
4 *215:B1 *216:A 0.000100162
5 *215:B1 *216:B 4.11641e-05
6 *215:B1 *219:A1 1.42885e-05
7 *215:B1 *219:A2 2.65814e-06
8 *215:B1 *219:B2 8.41307e-05
*RES
1 *193:Y *215:B1 10.68 
*END

*D_NET *29 0.00558049
*CONN
*I *208:A I *D sky130_fd_sc_hd__nand2_1
*I *215:A1 I *D sky130_fd_sc_hd__a21oi_1
*I *207:B1 I *D sky130_fd_sc_hd__a21oi_1
*I *199:A1 I *D sky130_fd_sc_hd__o21bai_1
*I *198:A I *D sky130_fd_sc_hd__or3b_1
*I *194:X O *D sky130_fd_sc_hd__and4_1
*CAP
1 *208:A 3.41969e-05
2 *215:A1 4.14938e-05
3 *207:B1 0
4 *199:A1 0.000240196
5 *198:A 0.000143411
6 *194:X 0.00065098
7 *29:47 0.000608301
8 *29:25 0.000311693
9 *29:14 0.000273798
10 *29:10 0.00124248
11 *198:A *209:B 3.00381e-05
12 *198:A *32:25 0.000262842
13 *199:A1 *199:A2 2.15986e-05
14 *199:A1 *32:25 0.000261084
15 *208:A *41:36 1.2668e-05
16 *215:A1 *216:B 3.03586e-05
17 *215:A1 *219:A1 8.49571e-05
18 *215:A1 *219:B2 9.77048e-06
19 *215:A1 *41:25 2.85837e-05
20 *215:A1 *41:36 1.77595e-05
21 *29:10 *189:B 2.61633e-05
22 *29:10 *30:10 0.000534193
23 *29:10 *32:12 8.26696e-05
24 *29:10 *66:16 0.000200615
25 *29:25 *32:25 0.0001249
26 *29:47 *209:B 0
27 *29:47 *213:A_N 0
28 *29:47 *213:B 0.000159883
29 *29:47 *217:B 4.82863e-05
30 *29:47 *219:A1 3.74161e-05
31 *29:47 *32:12 1.22762e-05
32 *29:47 *41:10 0
33 *29:47 *41:25 0
34 *29:47 *41:36 2.93128e-05
35 *200:A *199:A1 1.85674e-05
*RES
1 *194:X *29:10 13.35 
2 *29:10 *29:14 2.795 
3 *29:14 *198:A 5.08 
4 *29:14 *29:25 1.485 
5 *29:25 *199:A1 5.44 
6 *29:25 *207:B1 1.6 
7 *29:10 *29:47 11.435 
8 *29:47 *215:A1 7.01 
9 *29:47 *208:A 2.215 
*END

*D_NET *30 0.00181112
*CONN
*I *207:A1 I *D sky130_fd_sc_hd__a21oi_1
*I *196:A I *D sky130_fd_sc_hd__inv_2
*I *195:X O *D sky130_fd_sc_hd__a22o_1
*CAP
1 *207:A1 5.84846e-05
2 *196:A 0.000143955
3 *195:X 0.000284742
4 *30:10 0.000487181
5 *207:A1 *31:12 0
6 *207:A1 *32:12 0.000110683
7 *30:10 *189:B 0.000137881
8 *30:10 *32:12 5.4003e-05
9 *29:10 *30:10 0.000534193
*RES
1 *195:X *30:10 10.53 
2 *30:10 *196:A 5.775 
3 *30:10 *207:A1 4.98 
*END

*D_NET *31 0.000701669
*CONN
*I *199:A2 I *D sky130_fd_sc_hd__o21bai_1
*I *198:B I *D sky130_fd_sc_hd__or3b_1
*I *196:Y O *D sky130_fd_sc_hd__inv_2
*CAP
1 *199:A2 6.56817e-05
2 *198:B 3.55506e-05
3 *196:Y 0.000139025
4 *31:12 0.000240258
5 *199:A2 *199:B1_N 0.0001249
6 *199:A2 *32:25 2.30292e-05
7 *31:12 *199:B1_N 1.70935e-05
8 *31:12 *224:B 0
9 *31:12 *32:12 0
10 *31:12 *32:25 2.75229e-05
11 *199:A1 *199:A2 2.15986e-05
12 *200:A *199:A2 7.00889e-06
13 *200:A *31:12 0
14 *207:A1 *31:12 0
*RES
1 *196:Y *31:12 7.685 
2 *31:12 *198:B 2.215 
3 *31:12 *199:A2 3.445 
*END

*D_NET *32 0.00258859
*CONN
*I *198:C_N I *D sky130_fd_sc_hd__or3b_1
*I *199:B1_N I *D sky130_fd_sc_hd__o21bai_1
*I *207:A2 I *D sky130_fd_sc_hd__a21oi_1
*I *197:Y O *D sky130_fd_sc_hd__o21ai_1
*CAP
1 *198:C_N 0
2 *199:B1_N 0.000170528
3 *207:A2 0
4 *197:Y 0.000444319
5 *32:25 0.000260851
6 *32:12 0.000534641
7 *199:B1_N *224:B 0
8 *197:B1 *32:12 2.86975e-05
9 *198:A *32:25 0.000262842
10 *199:A1 *32:25 0.000261084
11 *199:A2 *199:B1_N 0.0001249
12 *199:A2 *32:25 2.30292e-05
13 *200:A *199:B1_N 4.85494e-05
14 *207:A1 *32:12 0.000110683
15 *29:10 *32:12 8.26696e-05
16 *29:25 *32:25 0.0001249
17 *29:47 *32:12 1.22762e-05
18 *30:10 *32:12 5.4003e-05
19 *31:12 *199:B1_N 1.70935e-05
20 *31:12 *32:12 0
21 *31:12 *32:25 2.75229e-05
*RES
1 *197:Y *32:12 12.23 
2 *32:12 *207:A2 1.6 
3 *32:12 *32:25 4.38 
4 *32:25 *199:B1_N 8.39 
5 *32:25 *198:C_N 1.6 
*END

*D_NET *33 0.00271547
*CONN
*I *213:A_N I *D sky130_fd_sc_hd__nand2b_1
*I *200:B I *D sky130_fd_sc_hd__and3_1
*I *223:A1 I *D sky130_fd_sc_hd__a21oi_1
*I *198:X O *D sky130_fd_sc_hd__or3b_1
*CAP
1 *213:A_N 0.000270325
2 *200:B 0
3 *223:A1 0.000285021
4 *198:X 4.60998e-05
5 *33:16 0.000799546
6 *33:8 0.00083095
7 *213:A_N *209:B 0.000139843
8 *213:A_N *45:12 0
9 *213:A_N *45:21 4.82863e-05
10 *223:A1 *224:B 0.000151918
11 *223:A1 *35:8 5.53249e-06
12 *33:8 *209:B 3.86607e-05
13 *33:16 *224:B 3.31204e-05
14 *33:16 *237:A 2.75145e-05
15 *33:16 *35:8 3.86529e-05
16 *29:47 *213:A_N 0
*RES
1 *198:X *33:8 4.47 
2 *33:8 *33:16 10.15 
3 *33:16 *223:A1 7.92 
4 *33:16 *200:B 3.6 
5 *33:8 *213:A_N 9 
*END

*D_NET *34 0.000699419
*CONN
*I *200:C I *D sky130_fd_sc_hd__and3_1
*I *223:A2 I *D sky130_fd_sc_hd__a21oi_1
*I *199:Y O *D sky130_fd_sc_hd__o21bai_1
*CAP
1 *200:C 0.000158527
2 *223:A2 4.38695e-05
3 *199:Y 0
4 *34:4 0.000202397
5 *223:A2 *224:B 4.40725e-05
6 *200:A *200:C 0.000123225
7 *200:A *223:A2 0.000117825
8 *27:23 *223:A2 9.50342e-06
*RES
1 *199:Y *34:4 1.6 
2 *34:4 *223:A2 6.98 
3 *34:4 *200:C 3.49 
*END

*D_NET *35 0.00112211
*CONN
*I *210:A I *D sky130_fd_sc_hd__nand2_1
*I *211:A I *D sky130_fd_sc_hd__or2_1
*I *224:A I *D sky130_fd_sc_hd__nor2_1
*I *200:X O *D sky130_fd_sc_hd__and3_1
*CAP
1 *210:A 6.36717e-05
2 *211:A 0
3 *224:A 3.64111e-05
4 *200:X 9.21318e-05
5 *35:23 0.000323496
6 *35:8 0.000388368
7 *210:A *211:B 4.99619e-05
8 *210:A *45:12 3.72916e-05
9 *224:A *237:A 8.65905e-05
10 *35:8 *224:B 0
11 P[3] *35:8 0
12 *223:A1 *35:8 5.53249e-06
13 *33:16 *35:8 3.86529e-05
*RES
1 *200:X *35:8 5.235 
2 *35:8 *224:A 4.395 
3 *35:8 *35:23 5.81 
4 *35:23 *211:A 1.6 
5 *35:23 *210:A 3.1 
*END

*D_NET *36 0.000587925
*CONN
*I *206:A I *D sky130_fd_sc_hd__xor2_2
*I *201:Y O *D sky130_fd_sc_hd__nand2_1
*CAP
1 *206:A 0.000172103
2 *201:Y 0.000172103
3 *206:A *202:B1 0.00011852
4 *206:A *206:B 4.11729e-05
5 *206:A *71:12 8.40269e-05
*RES
1 *201:Y *206:A 10.41 
*END

*D_NET *37 0.000888609
*CONN
*I *214:A3 I *D sky130_fd_sc_hd__a31o_1
*I *205:B1 I *D sky130_fd_sc_hd__o21ai_1
*I *202:X O *D sky130_fd_sc_hd__a22o_1
*CAP
1 *214:A3 5.84375e-05
2 *205:B1 0
3 *202:X 0.000109292
4 *37:12 0.00016773
5 *214:A3 *201:B 3.45679e-05
6 *214:A3 *214:A2 4.66108e-05
7 *214:A3 *70:21 0.000235573
8 *37:12 *201:B 0
9 *37:12 *202:B1 0.000155956
10 *37:12 *204:B 1.22505e-05
11 *37:12 *38:10 1.1561e-05
12 *205:A1 *214:A3 5.66292e-05
*RES
1 *202:X *37:12 7.685 
2 *37:12 *205:B1 1.6 
3 *37:12 *214:A3 3.775 
*END

*D_NET *38 0.00216893
*CONN
*I *221:A0 I *D sky130_fd_sc_hd__mux2_1
*I *205:A2 I *D sky130_fd_sc_hd__o21ai_1
*I *204:B I *D sky130_fd_sc_hd__nor2_1
*I *203:Y O *D sky130_fd_sc_hd__nand2_1
*CAP
1 *221:A0 0.000133731
2 *205:A2 0
3 *204:B 0.000394276
4 *203:Y 6.43169e-05
5 *38:10 0.000517376
6 *38:8 0.000321148
7 *204:B *201:B 4.55864e-06
8 *204:B *214:A2 3.63701e-06
9 *204:B *70:25 6.63219e-06
10 *204:B *71:34 6.63219e-06
11 *221:A0 *225:A1_N 0
12 *221:A0 *48:8 9.50342e-06
13 *221:A0 *48:23 0.000177568
14 *221:A0 *53:10 9.54399e-05
15 *221:A0 *67:32 0
16 *221:A0 *71:12 1.73877e-05
17 *38:8 *71:19 4.80285e-05
18 *38:10 *202:B1 1.23331e-05
19 *38:10 *206:B 0.000139238
20 *38:10 *214:A2 2.99518e-06
21 *38:10 *48:8 0.000131093
22 *38:10 *66:80 0
23 *38:10 *71:12 5.92191e-05
24 *37:12 *204:B 1.22505e-05
25 *37:12 *38:10 1.1561e-05
*RES
1 *203:Y *38:8 4.395 
2 *38:8 *38:10 3.675 
3 *38:10 *204:B 5.6274 
4 *38:10 *205:A2 3.6 
5 *38:8 *221:A0 6.96 
*END

*D_NET *39 0.000157352
*CONN
*I *214:B1 I *D sky130_fd_sc_hd__a31o_1
*I *204:Y O *D sky130_fd_sc_hd__nor2_1
*CAP
1 *214:B1 5.19388e-05
2 *204:Y 5.19388e-05
3 *204:A *214:B1 5.34747e-05
*RES
1 *204:Y *214:B1 4.34 
*END

*D_NET *40 0.0003957
*CONN
*I *206:B I *D sky130_fd_sc_hd__xor2_2
*I *205:Y O *D sky130_fd_sc_hd__o21ai_1
*CAP
1 *206:B 6.74422e-05
2 *205:Y 6.74422e-05
3 *206:B *202:B1 7.18738e-05
4 *206:B *71:12 8.53113e-06
5 *206:A *206:B 4.11729e-05
6 *38:10 *206:B 0.000139238
*RES
1 *205:Y *206:B 7.6325 
*END

*D_NET *41 0.00315122
*CONN
*I *213:B I *D sky130_fd_sc_hd__nand2b_1
*I *208:B I *D sky130_fd_sc_hd__nand2_1
*I *215:A2 I *D sky130_fd_sc_hd__a21oi_1
*I *209:A I *D sky130_fd_sc_hd__xnor2_1
*I *206:X O *D sky130_fd_sc_hd__xor2_2
*CAP
1 *213:B 8.12888e-05
2 *208:B 0
3 *215:A2 0
4 *209:A 0.000381042
5 *206:X 0.000438666
6 *41:36 0.000139805
7 *41:25 0.000269959
8 *41:10 0.00103115
9 *213:B *217:B 6.32842e-05
10 *213:B *219:B2 8.13096e-05
11 *213:B *45:21 0.000242042
12 *213:B *45:23 4.89295e-05
13 *41:10 *71:34 0
14 *41:36 *219:B2 0.000125539
15 *208:A *41:36 1.2668e-05
16 *215:A1 *41:25 2.85837e-05
17 *215:A1 *41:36 1.77595e-05
18 *29:47 *213:B 0.000159883
19 *29:47 *41:10 0
20 *29:47 *41:25 0
21 *29:47 *41:36 2.93128e-05
*RES
1 *206:X *41:10 9.48 
2 *41:10 *209:A 8.88 
3 *41:10 *41:25 4.85 
4 *41:25 *215:A2 1.6 
5 *41:25 *41:36 1.86 
6 *41:36 *208:B 1.6 
7 *41:36 *213:B 5.6125 
*END

*D_NET *42 0.000600228
*CONN
*I *209:B I *D sky130_fd_sc_hd__xnor2_1
*I *207:Y O *D sky130_fd_sc_hd__a21oi_1
*CAP
1 *209:B 0.000195843
2 *207:Y 0.000195843
3 *198:A *209:B 3.00381e-05
4 *213:A_N *209:B 0.000139843
5 *29:47 *209:B 0
6 *33:8 *209:B 3.86607e-05
*RES
1 *207:Y *209:B 11.325 
*END

*D_NET *43 0.000602338
*CONN
*I *219:A1 I *D sky130_fd_sc_hd__o22a_1
*I *208:Y O *D sky130_fd_sc_hd__nand2_1
*CAP
1 *219:A1 0.000227522
2 *208:Y 0.000227522
3 *219:A1 *219:B2 1.06333e-05
4 *215:A1 *219:A1 8.49571e-05
5 *215:B1 *219:A1 1.42885e-05
6 *29:47 *219:A1 3.74161e-05
*RES
1 *208:Y *219:A1 6.245 
*END

*D_NET *44 0.000414319
*CONN
*I *210:B I *D sky130_fd_sc_hd__nand2_1
*I *211:B I *D sky130_fd_sc_hd__or2_1
*I *209:Y O *D sky130_fd_sc_hd__xnor2_1
*CAP
1 *210:B 0
2 *211:B 7.38273e-05
3 *209:Y 0.000101686
4 *44:8 0.000175514
5 *211:B *45:12 1.33293e-05
6 *210:A *211:B 4.99619e-05
*RES
1 *209:Y *44:8 3.355 
2 *44:8 *211:B 3.1 
3 *44:8 *210:B 1.6 
*END

*D_NET *45 0.00319006
*CONN
*I *218:A1 I *D sky130_fd_sc_hd__o21ba_1
*I *219:B2 I *D sky130_fd_sc_hd__o22a_1
*I *217:A I *D sky130_fd_sc_hd__and3_1
*I *212:A I *D sky130_fd_sc_hd__and2_1
*I *210:Y O *D sky130_fd_sc_hd__nand2_1
*CAP
1 *218:A1 8.38945e-05
2 *219:B2 0.000445213
3 *217:A 0
4 *212:A 0
5 *210:Y 0.000155718
6 *45:23 0.000465287
7 *45:21 0.000556489
8 *45:12 0.000608238
9 *218:A1 *217:C 9.21008e-05
10 *218:A1 *218:B1_N 7.98745e-06
11 *219:B2 *219:A2 3.1562e-06
12 *219:B2 *48:23 5.35969e-06
13 *45:12 *212:B 4.70343e-05
14 *45:21 *217:C 1.83194e-05
15 *210:A *45:12 3.72916e-05
16 *211:B *45:12 1.33293e-05
17 *213:A_N *45:12 0
18 *213:A_N *45:21 4.82863e-05
19 *213:B *219:B2 8.13096e-05
20 *213:B *45:21 0.000242042
21 *213:B *45:23 4.89295e-05
22 *215:A1 *219:B2 9.77048e-06
23 *215:B1 *219:B2 8.41307e-05
24 *219:A1 *219:B2 1.06333e-05
25 *41:36 *219:B2 0.000125539
*RES
1 *210:Y *45:12 8.12 
2 *45:12 *212:A 1.6 
3 *45:12 *45:21 7.275 
4 *45:21 *45:23 0.45 
5 *45:23 *217:A 1.6 
6 *45:23 *219:B2 7.51 
7 *45:21 *218:A1 7.235 
*END

*D_NET *46 0.000281993
*CONN
*I *212:B I *D sky130_fd_sc_hd__and2_1
*I *211:X O *D sky130_fd_sc_hd__or2_1
*CAP
1 *212:B 0.00011748
2 *211:X 0.00011748
3 *45:12 *212:B 4.70343e-05
*RES
1 *211:X *212:B 9.285 
*END

*D_NET *47 0.000385499
*CONN
*I *217:B I *D sky130_fd_sc_hd__and3_1
*I *213:Y O *D sky130_fd_sc_hd__nand2b_1
*CAP
1 *217:B 0.000136964
2 *213:Y 0.000136964
3 *213:B *217:B 6.32842e-05
4 *29:47 *217:B 4.82863e-05
*RES
1 *213:Y *217:B 5.03 
*END

*D_NET *48 0.0023277
*CONN
*I *219:A2 I *D sky130_fd_sc_hd__o22a_1
*I *216:A I *D sky130_fd_sc_hd__xnor2_1
*I *220:C I *D sky130_fd_sc_hd__and3_1
*I *214:X O *D sky130_fd_sc_hd__a31o_1
*CAP
1 *219:A2 3.75352e-05
2 *216:A 0.000119465
3 *220:C 1.45965e-05
4 *214:X 8.50675e-05
5 *48:23 0.000684379
6 *48:8 0.000627042
7 *216:A *216:B 4.91927e-05
8 *216:A *219:B1 6.5525e-05
9 *216:A *52:12 0
10 *220:C *71:19 9.16333e-06
11 *48:8 *66:80 0.000140836
12 *48:23 *221:S 4.82919e-05
13 *48:23 *66:80 1.71013e-05
14 *48:23 *71:34 0
15 *215:B1 *216:A 0.000100162
16 *215:B1 *219:A2 2.65814e-06
17 *219:B2 *219:A2 3.1562e-06
18 *219:B2 *48:23 5.35969e-06
19 *221:A0 *48:8 9.50342e-06
20 *221:A0 *48:23 0.000177568
21 *38:10 *48:8 0.000131093
*RES
1 *214:X *48:8 6.51 
2 *48:8 *220:C 3.765 
3 *48:8 *48:23 8.735 
4 *48:23 *216:A 8.255 
5 *48:23 *219:A2 2.05 
*END

*D_NET *49 0.000538483
*CONN
*I *216:B I *D sky130_fd_sc_hd__xnor2_1
*I *215:Y O *D sky130_fd_sc_hd__a21oi_1
*CAP
1 *216:B 0.000192387
2 *215:Y 0.000192387
3 *216:B *219:B1 3.29947e-05
4 *215:A1 *216:B 3.03586e-05
5 *215:B1 *216:B 4.11641e-05
6 *216:A *216:B 4.91927e-05
*RES
1 *215:Y *216:B 10.65 
*END

*D_NET *50 0.00162949
*CONN
*I *218:A2 I *D sky130_fd_sc_hd__o21ba_1
*I *217:C I *D sky130_fd_sc_hd__and3_1
*I *219:B1 I *D sky130_fd_sc_hd__o22a_1
*I *216:Y O *D sky130_fd_sc_hd__xnor2_1
*CAP
1 *218:A2 5.18219e-05
2 *217:C 4.78217e-05
3 *219:B1 0.000245488
4 *216:Y 0
5 *50:21 0.000419411
6 *50:4 0.000565255
7 *217:C *218:B1_N 5.02217e-05
8 *219:B1 *52:12 4.05358e-05
9 *216:A *219:B1 6.5525e-05
10 *216:B *219:B1 3.29947e-05
11 *218:A1 *217:C 9.21008e-05
12 *45:21 *217:C 1.83194e-05
*RES
1 *216:Y *50:4 1.6 
2 *50:4 *219:B1 9.155 
3 *50:4 *50:21 4.26 
4 *50:21 *217:C 6.89 
5 *50:21 *218:A2 2.41 
*END

*D_NET *51 0.000309668
*CONN
*I *218:B1_N I *D sky130_fd_sc_hd__o21ba_1
*I *217:X O *D sky130_fd_sc_hd__and3_1
*CAP
1 *218:B1_N 0.00012573
2 *217:X 0.00012573
3 *217:C *218:B1_N 5.02217e-05
4 *218:A1 *218:B1_N 7.98745e-06
*RES
1 *217:X *218:B1_N 9.375 
*END

*D_NET *52 0.00138659
*CONN
*I *222:A I *D sky130_fd_sc_hd__xor2_1
*I *225:A1_N I *D sky130_fd_sc_hd__a2bb2o_1
*I *219:X O *D sky130_fd_sc_hd__o22a_1
*CAP
1 *222:A 0
2 *225:A1_N 0.000233634
3 *219:X 0.0004302
4 *52:12 0.000663835
5 *225:A1_N *222:B 0
6 *225:A1_N *240:A 1.83847e-05
7 *216:A *52:12 0
8 *219:B1 *52:12 4.05358e-05
9 *221:A0 *225:A1_N 0
*RES
1 *219:X *52:12 12.26 
2 *52:12 *225:A1_N 9.32 
3 *52:12 *222:A 1.6 
*END

*D_NET *53 0.000860989
*CONN
*I *221:S I *D sky130_fd_sc_hd__mux2_1
*I *225:B1 I *D sky130_fd_sc_hd__a2bb2o_1
*I *220:X O *D sky130_fd_sc_hd__and3_1
*CAP
1 *221:S 6.43753e-05
2 *225:B1 8.02043e-05
3 *220:X 4.06555e-05
4 *53:10 0.000185235
5 *221:S *221:A1 8.40269e-05
6 *225:B1 *221:A1 0.000123225
7 *225:B1 *225:A2_N 2.16833e-05
8 *225:B1 *225:B2 8.09753e-05
9 *53:10 *221:A1 1.0183e-05
10 *53:10 *67:32 2.66935e-05
11 *221:A0 *53:10 9.54399e-05
12 *48:23 *221:S 4.82919e-05
*RES
1 *220:X *53:10 6.725 
2 *53:10 *225:B1 3.445 
3 *53:10 *221:S 3.1 
*END

*D_NET *54 0.0005484
*CONN
*I *222:B I *D sky130_fd_sc_hd__xor2_1
*I *225:A2_N I *D sky130_fd_sc_hd__a2bb2o_1
*I *221:X O *D sky130_fd_sc_hd__mux2_1
*CAP
1 *222:B 0.000108147
2 *225:A2_N 0.000141681
3 *221:X 0
4 *54:4 0.000249829
5 *225:A2_N *221:A1 1.08758e-05
6 *225:A2_N *225:B2 1.61831e-05
7 *225:A1_N *222:B 0
8 *225:B1 *225:A2_N 2.16833e-05
*RES
1 *221:X *54:4 1.6 
2 *54:4 *225:A2_N 4.045 
3 *54:4 *222:B 7.235 
*END

*D_NET *55 0.000993579
*CONN
*I *224:B I *D sky130_fd_sc_hd__nor2_1
*I *223:Y O *D sky130_fd_sc_hd__a21oi_1
*CAP
1 *224:B 0.000367215
2 *223:Y 0.000367215
3 *199:B1_N *224:B 0
4 *223:A1 *224:B 0.000151918
5 *223:A2 *224:B 4.40725e-05
6 *223:B1 *224:B 3.00381e-05
7 *27:23 *224:B 0
8 *31:12 *224:B 0
9 *33:16 *224:B 3.31204e-05
10 *35:8 *224:B 0
*RES
1 *223:Y *224:B 14.07 
*END

*D_NET *56 0.00056105
*CONN
*I *226:A I *D sky130_fd_sc_hd__clkbuf_1
*I *181:X O *D sky130_fd_sc_hd__and2b_1
*CAP
1 *226:A 0.000120791
2 *181:X 0.000120791
3 *226:A *68:18 0.000150568
4 *226:A *68:20 4.89295e-05
5 *23:12 *226:A 1.61831e-05
6 *25:14 *226:A 0.000103787
*RES
1 *181:X *226:A 5.99 
*END

*D_NET *57 0.00296118
*CONN
*I *182:D I *D sky130_fd_sc_hd__nand4_1
*I *183:B2 I *D sky130_fd_sc_hd__a22o_1
*I *194:B I *D sky130_fd_sc_hd__and4_1
*I *195:B2 I *D sky130_fd_sc_hd__a22o_1
*I *186:A I *D sky130_fd_sc_hd__nand2_1
*I *188:B2 I *D sky130_fd_sc_hd__a32o_1
*I *227:X O *D sky130_fd_sc_hd__buf_1
*CAP
1 *182:D 5.33705e-05
2 *183:B2 2.33009e-05
3 *194:B 4.7569e-05
4 *195:B2 0
5 *186:A 9.73191e-06
6 *188:B2 0
7 *227:X 0.000109512
8 *57:40 0.000229454
9 *57:25 0.000295306
10 *57:21 0.000201236
11 *57:14 0.00014646
12 *57:8 0.000235096
13 *183:B2 *182:A 2.75229e-05
14 *183:B2 *183:B1 5.68716e-05
15 *194:B *195:A1 8.37704e-05
16 *194:B *195:B1 2.26862e-05
17 *194:B *202:A2 8.65961e-05
18 *194:B *66:46 4.66108e-05
19 *194:B *71:36 0.000114912
20 *57:14 *182:C 3.09233e-05
21 *57:14 *65:16 2.69343e-05
22 *57:14 *69:19 0.00011852
23 *57:14 *69:32 3.09233e-05
24 *57:21 *182:A 2.49909e-05
25 *57:21 *183:B1 0.00027042
26 *57:21 *188:A2 0.000160641
27 *57:25 *182:A 5.23362e-05
28 *57:40 *195:A1 4.82863e-05
29 *57:40 *195:B1 1.08758e-05
30 *57:40 *66:10 0
31 *57:40 *71:36 1.46744e-05
32 *227:A *182:D 4.60584e-05
33 *227:A *57:8 6.52265e-05
34 *228:A *57:14 2.97004e-06
35 *232:A *57:8 8.65961e-05