*SPEF "ieee 1481-1999"
*DESIGN "SARSANSTEPS_VENTAJA_e7"
*DATE "09:44:21 Friday September 12, 2025"
*VENDOR "The OpenROAD Project"
*PROGRAM "OpenROAD"
*VERSION "edf00dff99f6c40d67a30c0e22a8191c5d2ed9d6"
*DESIGN_FLOW "NAME_SCOPE LOCAL" "PIN_CAP NONE"
*DIVIDER /
*DELIMITER :
*BUS_DELIMITER []
*T_UNIT 1 NS
*C_UNIT 1 PF
*R_UNIT 1 OHM
*L_UNIT 1 HENRY

*NAME_MAP
*1 A[0]
*2 A[1]
*3 B[0]
*4 B[1]
*5 P[0]
*6 P[1]
*7 P[2]
*8 P[3]
*11 _0_
*12 _1_
*13 net1
*14 net2
*15 net3
*16 net4
*17 net5
*18 net6
*19 net7
*20 net8
*21 FILLER_0_15
*22 FILLER_0_27
*23 FILLER_0_29
*24 FILLER_0_3
*25 FILLER_0_41
*26 FILLER_0_49
*27 FILLER_0_57
*28 FILLER_0_69
*29 FILLER_1_15
*30 FILLER_1_27
*31 FILLER_1_3
*32 FILLER_1_39
*33 FILLER_1_51
*34 FILLER_1_55
*35 FILLER_1_57
*36 FILLER_1_69
*37 FILLER_2_15
*38 FILLER_2_27
*39 FILLER_2_29
*40 FILLER_2_3
*41 FILLER_2_41
*42 FILLER_2_53
*43 FILLER_2_65
*44 FILLER_2_77
*45 FILLER_3_15
*46 FILLER_3_27
*47 FILLER_3_3
*48 FILLER_3_39
*49 FILLER_3_51
*50 FILLER_3_55
*51 FILLER_3_57
*52 FILLER_3_69
*53 FILLER_4_15
*54 FILLER_4_27
*55 FILLER_4_29
*56 FILLER_4_3
*57 FILLER_4_41
*58 FILLER_4_53
*59 FILLER_4_65
*60 FILLER_4_77
*61 FILLER_5_15
*62 FILLER_5_27
*63 FILLER_5_3
*64 FILLER_5_39
*65 FILLER_5_47
*66 FILLER_5_55
*67 FILLER_5_57
*68 FILLER_5_69
*69 FILLER_6_15
*70 FILLER_6_27
*71 FILLER_6_29
*72 FILLER_6_3
*73 FILLER_6_41
*74 FILLER_6_53
*75 FILLER_6_65
*76 FILLER_6_77
*77 FILLER_7_15
*78 FILLER_7_27
*79 FILLER_7_3
*80 FILLER_7_33
*81 FILLER_7_37
*82 FILLER_7_49
*83 FILLER_7_55
*84 FILLER_7_57
*85 FILLER_7_69
*86 FILLER_8_15
*87 FILLER_8_27
*88 FILLER_8_29
*89 FILLER_8_3
*90 FILLER_8_42
*91 FILLER_8_51
*92 FILLER_8_68
*93 FILLER_8_80
*94 FILLER_9_15
*95 FILLER_9_23
*96 FILLER_9_27
*97 FILLER_9_29
*98 FILLER_9_3
*99 FILLER_9_34
*100 FILLER_9_41
*101 FILLER_9_49
*102 FILLER_9_57
*103 FILLER_9_63
*104 FILLER_9_69
*105 PHY_EDGE_ROW_0_Left_10
*106 PHY_EDGE_ROW_0_Right_0
*107 PHY_EDGE_ROW_1_Left_11
*108 PHY_EDGE_ROW_1_Right_1
*109 PHY_EDGE_ROW_2_Left_12
*110 PHY_EDGE_ROW_2_Right_2
*111 PHY_EDGE_ROW_3_Left_13
*112 PHY_EDGE_ROW_3_Right_3
*113 PHY_EDGE_ROW_4_Left_14
*114 PHY_EDGE_ROW_4_Right_4
*115 PHY_EDGE_ROW_5_Left_15
*116 PHY_EDGE_ROW_5_Right_5
*117 PHY_EDGE_ROW_6_Left_16
*118 PHY_EDGE_ROW_6_Right_6
*119 PHY_EDGE_ROW_7_Left_17
*120 PHY_EDGE_ROW_7_Right_7
*121 PHY_EDGE_ROW_8_Left_18
*122 PHY_EDGE_ROW_8_Right_8
*123 PHY_EDGE_ROW_9_Left_19
*124 PHY_EDGE_ROW_9_Right_9
*125 TAP_TAPCELL_ROW_0_20
*126 TAP_TAPCELL_ROW_0_21
*127 TAP_TAPCELL_ROW_1_22
*128 TAP_TAPCELL_ROW_2_23
*129 TAP_TAPCELL_ROW_3_24
*130 TAP_TAPCELL_ROW_4_25
*131 TAP_TAPCELL_ROW_5_26
*132 TAP_TAPCELL_ROW_6_27
*133 TAP_TAPCELL_ROW_7_28
*134 TAP_TAPCELL_ROW_8_29
*135 TAP_TAPCELL_ROW_9_30
*136 TAP_TAPCELL_ROW_9_31
*137 _2_
*138 _3_
*139 _4_
*140 _5_
*141 _6_
*142 _7_
*143 input1
*144 input2
*145 input3
*146 input4
*147 output5
*148 output6
*149 output7
*150 output8

*PORTS
A[0] I
A[1] I
B[0] I
B[1] I
P[0] O
P[1] O
P[2] O
P[3] O

*D_NET *1 0.000874227
*CONN
*P A[0] I
*I *143:A I *D sky130_fd_sc_hd__buf_1
*CAP
1 A[0] 0.000437114
2 *143:A 0.000437114
3 *143:A *146:A 0
*RES
1 A[0] *143:A 11.37 
*END

*D_NET *2 0.000950239
*CONN
*P A[1] I
*I *144:A I *D sky130_fd_sc_hd__clkbuf_1
*CAP
1 A[1] 0.00047512
2 *144:A 0.00047512
3 *144:A P[3] 0
*RES
1 A[1] *144:A 12.06 
*END

*D_NET *3 0.000874227
*CONN
*P B[0] I
*I *145:A I *D sky130_fd_sc_hd__buf_1
*CAP
1 B[0] 0.000437114
2 *145:A 0.000437114
3 *145:A P[2] 0
4 *145:A *146:A 0
5 *145:A *149:A 0
*RES
1 B[0] *145:A 11.37 
*END

*D_NET *4 0.000874227
*CONN
*P B[1] I
*I *146:A I *D sky130_fd_sc_hd__clkbuf_1
*CAP
1 B[1] 0.000437114
2 *146:A 0.000437114
3 *143:A *146:A 0
4 *145:A *146:A 0
*RES
1 B[1] *146:A 11.37 
*END

*D_NET *5 0.000876668
*CONN
*P P[0] O
*I *147:X O *D sky130_fd_sc_hd__buf_2
*CAP
1 P[0] 0.000438334
2 *147:X 0.000438334
*RES
1 *147:X P[0] 10.53 
*END

*D_NET *6 0.00085605
*CONN
*P P[1] O
*I *148:X O *D sky130_fd_sc_hd__buf_2
*CAP
1 P[1] 0.000428025
2 *148:X 0.000428025
3 P[1] P[2] 0
4 P[1] P[3] 0
*RES
1 *148:X P[1] 11.205 
*END

*D_NET *7 0.000894056
*CONN
*P P[2] O
*I *149:X O *D sky130_fd_sc_hd__buf_2
*CAP
1 P[2] 0.000447028
2 *149:X 0.000447028
3 P[1] P[2] 0
4 *145:A P[2] 0
*RES
1 *149:X P[2] 11.55 
*END

*D_NET *8 0.000894056
*CONN
*P P[3] O
*I *150:X O *D sky130_fd_sc_hd__buf_2
*CAP
1 P[3] 0.000447028
2 *150:X 0.000447028
3 P[1] P[3] 0
4 *144:A P[3] 0
*RES
1 *150:X P[3] 11.55 
*END

*D_NET *11 0.000409281
*CONN
*I *142:C I *D sky130_fd_sc_hd__and3_1
*I *138:Y O *D sky130_fd_sc_hd__nand2_1
*CAP
1 *142:C 0.000138484
2 *138:Y 0.000138484
3 *142:C *138:B 2.47705e-05
4 *142:C *139:A 4.49657e-05
5 *142:C *142:A 4.94474e-05
6 *142:C *13:29 1.31297e-05
*RES
1 *138:Y *142:C 9.27 
*END

*D_NET *12 0.000152632
*CONN
*I *141:B I *D sky130_fd_sc_hd__and2b_1
*I *140:X O *D sky130_fd_sc_hd__mux2_1
*CAP
1 *141:B 2.48015e-05
2 *140:X 2.48015e-05
3 *141:B *140:A0 5.30673e-05
4 *141:B *148:A 4.99619e-05
*RES
1 *140:X *141:B 3.995 
*END

*D_NET *13 0.00401428
*CONN
*I *140:A0 I *D sky130_fd_sc_hd__mux2_1
*I *139:D I *D sky130_fd_sc_hd__and4_1
*I *137:B I *D sky130_fd_sc_hd__xnor2_1
*I *138:B I *D sky130_fd_sc_hd__nand2_1
*I *143:X O *D sky130_fd_sc_hd__buf_1
*CAP
1 *140:A0 0.000121252
2 *139:D 0
3 *137:B 0.000424875
4 *138:B 0.000158712
5 *143:X 0.000310653
6 *13:46 0.000226294
7 *13:29 0.000675404
8 *13:12 0.000614853
9 *137:B *16:12 2.86623e-05
10 *140:A0 *140:S 0.00058622
11 *140:A0 *148:A 1.12578e-05
12 *140:A0 *150:A 0.000114912
13 *140:A0 *20:6 0.00012657
14 *13:29 *139:A 4.80285e-05
15 *13:29 *142:A 2.68464e-05
16 *13:29 *142:B 4.82863e-05
17 *13:46 *139:A 8.70256e-05
18 *13:46 *140:S 4.35432e-05
19 *13:46 *142:B 0.000269916
20 *141:B *140:A0 5.30673e-05
21 *142:C *138:B 2.47705e-05
22 *142:C *13:29 1.31297e-05
*RES
1 *143:X *13:12 7.4775 
2 *13:12 *138:B 6.3225 
3 *13:12 *13:29 4.52 
4 *13:29 *137:B 12.53 
5 *13:29 *13:46 3.225 
6 *13:46 *139:D 1.6 
7 *13:46 *140:A0 6.88 
*END

*D_NET *14 0.00251504
*CONN
*I *140:A1 I *D sky130_fd_sc_hd__mux2_1
*I *142:B I *D sky130_fd_sc_hd__and3_1
*I *139:C I *D sky130_fd_sc_hd__and4_1
*I *144:X O *D sky130_fd_sc_hd__clkbuf_1
*CAP
1 *140:A1 9.59756e-05
2 *142:B 0.000125049
3 *139:C 4.13946e-05
4 *144:X 6.8658e-05
5 *14:12 0.000759238
6 *14:6 0.000757428
7 *139:C *15:10 5.16348e-05
8 *140:A1 *150:A 0
9 *142:B *149:A 0.000161467
10 *14:12 *148:A 0
11 *14:12 *150:A 5.0751e-05
12 *14:12 *15:10 8.5242e-05
13 *13:29 *142:B 4.82863e-05
14 *13:46 *142:B 0.000269916
*RES
1 *144:X *14:6 2.395 
2 *14:6 *14:12 9.095 
3 *14:12 *139:C 4.215 
4 *14:12 *142:B 6.825 
5 *14:6 *140:A1 6.98 
*END

*D_NET *15 0.00359569
*CONN
*I *140:S I *D sky130_fd_sc_hd__mux2_1
*I *139:B I *D sky130_fd_sc_hd__and4_1
*I *138:A I *D sky130_fd_sc_hd__nand2_1
*I *137:A I *D sky130_fd_sc_hd__xnor2_1
*I *145:X O *D sky130_fd_sc_hd__buf_1
*CAP
1 *140:S 0.000383545
2 *139:B 0
3 *138:A 0.000252609
4 *137:A 0.000356859
5 *145:X 0.000280248
6 *15:34 0.000383545
7 *15:12 0.000712804
8 *15:10 0.000383584
9 *137:A *147:A 7.00889e-06
10 *15:10 *149:A 6.88421e-05
11 *15:10 *16:12 0
12 *139:C *15:10 5.16348e-05
13 *140:A0 *140:S 0.00058622
14 *13:46 *140:S 4.35432e-05
15 *14:12 *15:10 8.5242e-05
*RES
1 *145:X *15:10 7.665 
2 *15:10 *15:12 1.635 
3 *15:12 *137:A 9.27 
4 *15:12 *138:A 7.155 
5 *15:10 *15:34 2 
6 *15:34 *139:B 1.6 
7 *15:34 *140:S 8.875 
*END

*D_NET *16 0.00110682
*CONN
*I *139:A I *D sky130_fd_sc_hd__and4_1
*I *142:A I *D sky130_fd_sc_hd__and3_1
*I *146:X O *D sky130_fd_sc_hd__clkbuf_1
*CAP
1 *139:A 0.000113158
2 *142:A 1.04396e-05
3 *146:X 0.000287323
4 *16:12 0.00041092
5 *16:12 *149:A 0
6 *137:B *16:12 2.86623e-05
7 *142:C *139:A 4.49657e-05
8 *142:C *142:A 4.94474e-05
9 *13:29 *139:A 4.80285e-05
10 *13:29 *142:A 2.68464e-05
11 *13:46 *139:A 8.70256e-05
12 *15:10 *16:12 0
*RES
1 *146:X *16:12 9.32 
2 *16:12 *142:A 2.05 
3 *16:12 *139:A 3.775 
*END

*D_NET *17 0.00152853
*CONN
*I *147:A I *D sky130_fd_sc_hd__buf_2
*I *137:Y O *D sky130_fd_sc_hd__xnor2_1
*CAP
1 *147:A 0.00076076
2 *137:Y 0.00076076
3 *137:A *147:A 7.00889e-06
*RES
1 *137:Y *147:A 19.425 
*END

*D_NET *18 0.000543323
*CONN
*I *148:A I *D sky130_fd_sc_hd__buf_2
*I *141:X O *D sky130_fd_sc_hd__and2b_1
*CAP
1 *148:A 0.000157675
2 *141:X 0.000157675
3 *148:A *150:A 0.000166753
4 *140:A0 *148:A 1.12578e-05
5 *141:B *148:A 4.99619e-05
6 *14:12 *148:A 0
*RES
1 *141:X *148:A 9.975 
*END

*D_NET *19 0.000619151
*CONN
*I *149:A I *D sky130_fd_sc_hd__buf_2
*I *142:X O *D sky130_fd_sc_hd__and3_1
*CAP
1 *149:A 0.000194421
2 *142:X 0.000194421
3 *142:B *149:A 0.000161467
4 *145:A *149:A 0
5 *15:10 *149:A 6.88421e-05
6 *16:12 *149:A 0
*RES
1 *142:X *149:A 10.32 
*END

*D_NET *20 0.000965894
*CONN
*I *150:A I *D sky130_fd_sc_hd__buf_2
*I *141:A_N I *D sky130_fd_sc_hd__and2b_1
*I *139:X O *D sky130_fd_sc_hd__and4_1
*CAP
1 *150:A 0.000206756
2 *141:A_N 0
3 *139:X 4.66979e-05
4 *20:6 0.000253454
5 *140:A0 *150:A 0.000114912
6 *140:A0 *20:6 0.00012657
7 *140:A1 *150:A 0
8 *148:A *150:A 0.000166753
9 *14:12 *150:A 5.0751e-05
*RES
1 *139:X *20:6 2.74 
2 *20:6 *141:A_N 1.6 
3 *20:6 *150:A 10.025 
*END
