*SPEF "ieee 1481-1999"
*DESIGN "mult4_SarsaNStepsRuido_e9_SarsaNStepsRuido_e9_SarsaNStepsRuido_e9_SARSA_RUIDO_e9"
*DATE "12:03:09 Wednesday September 17, 2025"
*VENDOR "The OpenROAD Project"
*PROGRAM "OpenROAD"
*VERSION "edf00dff99f6c40d67a30c0e22a8191c5d2ed9d6"
*DESIGN_FLOW "NAME_SCOPE LOCAL" "PIN_CAP NONE"
*DIVIDER /
*DELIMITER :
*BUS_DELIMITER []
*T_UNIT 1 NS
*C_UNIT 1 PF
*R_UNIT 1 OHM
*L_UNIT 1 HENRY

*NAME_MAP
*1 A[0]
*2 A[1]
*3 A[2]
*4 A[3]
*5 B[0]
*6 B[1]
*7 B[2]
*8 B[3]
*9 net16
*10 P[1]
*11 P[2]
*12 P[3]
*13 P[4]
*14 P[5]
*15 P[6]
*16 P[7]
*19 _00_
*20 _01_
*21 _02_
*22 _03_
*23 _04_
*24 _05_
*25 _06_
*26 _07_
*27 _08_
*28 _09_
*29 _10_
*30 _11_
*31 _12_
*32 _13_
*33 _14_
*34 _15_
*35 _16_
*36 _17_
*37 _18_
*38 _19_
*39 _20_
*40 _21_
*41 _22_
*42 _23_
*43 _24_
*44 _25_
*45 _26_
*46 _27_
*47 _28_
*48 _29_
*49 _30_
*50 _31_
*51 _32_
*52 _33_
*53 _34_
*54 _35_
*55 _36_
*56 _37_
*57 _38_
*58 _39_
*59 _40_
*60 _41_
*61 _42_
*62 _43_
*63 _44_
*64 _45_
*65 net1
*66 net10
*67 net11
*68 net12
*69 net13
*70 net14
*71 net15
*72 net2
*73 net3
*74 net4
*75 net5
*76 net6
*77 net7
*78 net8
*79 net9
*80 FILLER_0_23
*81 FILLER_0_29
*82 FILLER_0_3
*83 FILLER_0_49
*84 FILLER_0_57
*85 FILLER_0_69
*86 FILLER_1_15
*87 FILLER_1_3
*88 FILLER_1_57
*89 FILLER_1_70
*90 FILLER_2_17
*91 FILLER_2_25
*92 FILLER_2_29
*93 FILLER_2_3
*94 FILLER_2_41
*95 FILLER_2_57
*96 FILLER_2_69
*97 FILLER_2_9
*98 FILLER_3_3
*99 FILLER_3_41
*100 FILLER_3_53
*101 FILLER_3_57
*102 FILLER_3_7
*103 FILLER_3_78
*104 FILLER_4_19
*105 FILLER_4_27
*106 FILLER_4_29
*107 FILLER_4_51
*108 FILLER_4_63
*109 FILLER_4_7
*110 FILLER_4_74
*111 FILLER_5_15
*112 FILLER_5_28
*113 FILLER_5_40
*114 FILLER_5_51
*115 FILLER_5_55
*116 FILLER_5_64
*117 FILLER_5_7
*118 FILLER_5_77
*119 FILLER_6_18
*120 FILLER_6_26
*121 FILLER_6_41
*122 FILLER_6_48
*123 FILLER_6_60
*124 FILLER_6_72
*125 FILLER_6_76
*126 FILLER_7_19
*127 FILLER_7_28
*128 FILLER_7_40
*129 FILLER_7_53
*130 FILLER_7_57
*131 FILLER_7_69
*132 FILLER_7_7
*133 FILLER_8_11
*134 FILLER_8_19
*135 FILLER_8_29
*136 FILLER_8_3
*137 FILLER_8_33
*138 FILLER_8_45
*139 FILLER_8_53
*140 FILLER_8_61
*141 FILLER_8_74
*142 FILLER_8_80
*143 FILLER_9_19
*144 FILLER_9_27
*145 FILLER_9_29
*146 FILLER_9_37
*147 FILLER_9_42
*148 FILLER_9_54
*149 FILLER_9_57
*150 FILLER_9_69
*151 FILLER_9_7
*152 PHY_EDGE_ROW_0_Left_10
*153 PHY_EDGE_ROW_0_Right_0
*154 PHY_EDGE_ROW_1_Left_11
*155 PHY_EDGE_ROW_1_Right_1
*156 PHY_EDGE_ROW_2_Left_12
*157 PHY_EDGE_ROW_2_Right_2
*158 PHY_EDGE_ROW_3_Left_13
*159 PHY_EDGE_ROW_3_Right_3
*160 PHY_EDGE_ROW_4_Left_14
*161 PHY_EDGE_ROW_4_Right_4
*162 PHY_EDGE_ROW_5_Left_15
*163 PHY_EDGE_ROW_5_Right_5
*164 PHY_EDGE_ROW_6_Left_16
*165 PHY_EDGE_ROW_6_Right_6
*166 PHY_EDGE_ROW_7_Left_17
*167 PHY_EDGE_ROW_7_Right_7
*168 PHY_EDGE_ROW_8_Left_18
*169 PHY_EDGE_ROW_8_Right_8
*170 PHY_EDGE_ROW_9_Left_19
*171 PHY_EDGE_ROW_9_Right_9
*172 TAP_TAPCELL_ROW_0_20
*173 TAP_TAPCELL_ROW_0_21
*174 TAP_TAPCELL_ROW_1_22
*175 TAP_TAPCELL_ROW_2_23
*176 TAP_TAPCELL_ROW_3_24
*177 TAP_TAPCELL_ROW_4_25
*178 TAP_TAPCELL_ROW_5_26
*179 TAP_TAPCELL_ROW_6_27
*180 TAP_TAPCELL_ROW_7_28
*181 TAP_TAPCELL_ROW_8_29
*182 TAP_TAPCELL_ROW_9_30
*183 TAP_TAPCELL_ROW_9_31
*184 _46_
*185 _47_
*186 _48_
*187 _49_
*188 _50_
*189 _51_
*190 _52_
*191 _53_
*192 _54_
*193 _55_
*194 _56_
*195 _57_
*196 _58_
*197 _59_
*198 _60_
*199 _61_
*200 _62_
*201 _63_
*202 _64_
*203 _65_
*204 _66_
*205 _67_
*206 _68_
*207 _69_
*208 _70_
*209 _71_
*210 _72_
*211 _73_
*212 _74_
*213 _75_
*214 _76_
*215 _77_
*216 _78_
*217 _79_
*218 _80_
*219 _81_
*220 _82_
*221 _83_
*222 _84_
*223 _85_
*224 _86_
*225 _87_
*226 _88_
*227 _89_
*228 _90_
*229 _91_
*230 _92_
*231 _93_
*232 _94_
*233 _95_
*234 _96_
*235 _97_
*236 _98_
*237 input1
*238 input2
*239 input3
*240 input4
*241 input5
*242 input6
*243 input7
*244 input8
*245 mult4_SarsaNStepsRuido_e9_SarsaNStepsRuido_e9_SarsaNStepsRuido_e9_SARSA_RUIDO_e9_16
*246 output10
*247 output11
*248 output12
*249 output13
*250 output14
*251 output15
*252 output9

*PORTS
A[0] I
A[1] I
A[2] I
A[3] I
B[0] I
B[1] I
B[2] I
B[3] I
P[0] O
P[1] O
P[2] O
P[3] O
P[4] O
P[5] O
P[6] O
P[7] O

*D_NET *1 0.00121565
*CONN
*P A[0] I
*I *237:A I *D sky130_fd_sc_hd__buf_1
*CAP
1 A[0] 0.000506384
2 *237:A 0.000506384
3 *237:A P[1] 0
4 *237:A *252:A 5.67058e-05
5 *237:A *21:10 4.21594e-06
6 *237:A *75:8 0.00014196
7 *237:A *75:23 0
*RES
1 A[0] *237:A 49.0407 
*END

*D_NET *2 0.000992284
*CONN
*P A[1] I
*I *238:A I *D sky130_fd_sc_hd__clkbuf_2
*CAP
1 A[1] 0.000486401
2 *238:A 0.000486401
3 *238:A *243:A 0
4 *238:A *72:10 1.94812e-05
*RES
1 A[1] *238:A 47.9221 
*END

*D_NET *3 0.000778352
*CONN
*P A[2] I
*I *239:A I *D sky130_fd_sc_hd__clkbuf_2
*CAP
1 A[2] 0.000311106
2 *239:A 0
3 *3:17 0.000311106
4 *3:17 *4:15 0.000134894
5 *3:17 *8:17 2.12457e-05
6 *3:17 *73:10 0
*RES
1 A[2] *3:17 27.6348 
2 *3:17 *239:A 23 
*END

*D_NET *4 0.00147207
*CONN
*P A[3] I
*I *240:A I *D sky130_fd_sc_hd__buf_1
*CAP
1 A[3] 0.000516461
2 *240:A 0
3 *4:15 0.000516461
4 *4:15 *214:A2 4.07999e-05
5 *4:15 *6:17 3.12475e-05
6 *4:15 *46:10 0.000137651
7 *4:15 *73:10 0
8 *4:15 *73:19 9.45591e-05
9 *4:15 *78:20 0
10 *3:17 *4:15 0.000134894
*RES
1 A[3] *4:15 31.5892 
2 *4:15 *240:A 23 
*END

*D_NET *5 0.000938019
*CONN
*P B[0] I
*I *241:A I *D sky130_fd_sc_hd__dlymetal6s2s_1
*CAP
1 B[0] 0.000441504
2 *241:A 0.000441504
3 *241:A P[1] 0
4 *241:A P[2] 0
5 *241:A *75:8 5.50106e-05
*RES
1 B[0] *241:A 47.3214 
*END

*D_NET *6 0.000773667
*CONN
*P B[1] I
*I *242:A I *D sky130_fd_sc_hd__clkbuf_2
*CAP
1 B[1] 0.00037121
2 *242:A 0
3 *6:17 0.00037121
4 *4:15 *6:17 3.12475e-05
*RES
1 B[1] *6:17 28.3391 
2 *6:17 *242:A 23 
*END

*D_NET *7 0.000942798
*CONN
*P B[2] I
*I *243:A I *D sky130_fd_sc_hd__clkbuf_2
*CAP
1 B[2] 0.000464427
2 *243:A 0.000464427
3 *243:A P[2] 0
4 *243:A *77:10 1.39431e-05
5 *238:A *243:A 0
*RES
1 B[2] *243:A 47.7357 
*END

*D_NET *8 0.000677287
*CONN
*P B[3] I
*I *244:A I *D sky130_fd_sc_hd__clkbuf_2
*CAP
1 B[3] 0.000314064
2 *244:A 0
3 *8:17 0.000314064
4 *8:17 P[7] 2.79122e-05
5 *3:17 *8:17 2.12457e-05
*RES
1 B[3] *8:17 27.2827 
2 *8:17 *244:A 23 
*END

*D_NET *9 0.000473543
*CONN
*P P[0] O
*I *245:LO O *D sky130_fd_sc_hd__conb_1
*CAP
1 P[0] 0.000236772
2 *245:LO 0.000236772
3 P[0] P[3] 0
*RES
1 *245:LO P[0] 47.0789 
*END

*D_NET *10 0.00103951
*CONN
*P P[1] O
*I *252:X O *D sky130_fd_sc_hd__buf_2
*CAP
1 P[1] 0.000474592
2 *252:X 0.000474592
3 P[1] *252:A 5.50106e-05
4 P[1] *75:8 3.53115e-05
5 *237:A P[1] 0
6 *241:A P[1] 0
*RES
1 *252:X P[1] 47.57 
*END

*D_NET *11 0.00126601
*CONN
*P P[2] O
*I *246:X O *D sky130_fd_sc_hd__buf_2
*CAP
1 P[2] 0.000606943
2 *246:X 0.000606943
3 P[2] *65:68 1.49832e-05
4 P[2] *75:58 3.71369e-05
5 *241:A P[2] 0
6 *243:A P[2] 0
*RES
1 *246:X P[2] 48.9993 
*END

*D_NET *12 0.000708731
*CONN
*P P[3] O
*I *247:X O *D sky130_fd_sc_hd__buf_2
*CAP
1 P[3] 0.000332695
2 *247:X 0.000332695
3 P[3] P[4] 0
4 P[3] *67:8 4.334e-05
5 P[0] P[3] 0
*RES
1 *247:X P[3] 48.5734 
*END

*D_NET *13 0.000515599
*CONN
*P P[4] O
*I *248:X O *D sky130_fd_sc_hd__buf_2
*CAP
1 P[4] 0.000251428
2 *248:X 0.000251428
3 P[4] P[5] 0
4 P[4] *68:10 1.27424e-05
5 P[3] P[4] 0
*RES
1 *248:X P[4] 47.1648 
*END

*D_NET *14 0.000675947
*CONN
*P P[5] O
*I *249:X O *D sky130_fd_sc_hd__buf_2
*CAP
1 P[5] 0.000337973
2 *249:X 0.000337973
3 P[5] *69:8 0
4 P[4] P[5] 0
*RES
1 *249:X P[5] 48.5734 
*END

*D_NET *15 0.00100375
*CONN
*P P[6] O
*I *250:X O *D sky130_fd_sc_hd__buf_2
*CAP
1 P[6] 0.000501876
2 *250:X 0.000501876
*RES
1 *250:X P[6] 48.9786 
*END

*D_NET *16 0.000683751
*CONN
*P P[7] O
*I *251:X O *D sky130_fd_sc_hd__buf_2
*CAP
1 P[7] 0.00032792
2 *251:X 0.00032792
3 P[7] *71:8 0
4 *8:17 P[7] 2.79122e-05
*RES
1 *251:X P[7] 48.5734 
*END

*D_NET *19 0.00129056
*CONN
*I *199:B2 I *D sky130_fd_sc_hd__o32ai_1
*I *184:Y O *D sky130_fd_sc_hd__inv_2
*CAP
1 *199:B2 0
2 *184:Y 0.000156721
3 *19:6 0.000156721
4 *19:6 *190:B 2.93747e-05
5 *19:6 *21:38 0.000481463
6 *19:6 *28:14 1.72202e-05
7 *19:6 *30:10 5.34798e-05
8 *19:6 *32:8 5.67058e-05
9 *19:6 *72:29 0.000313185
10 *19:6 *72:38 2.56944e-05
*RES
1 *184:Y *19:6 29.3386 
2 *19:6 *199:B2 23 
*END

*D_NET *20 0.00033441
*CONN
*I *216:A2 I *D sky130_fd_sc_hd__a211o_1
*I *185:Y O *D sky130_fd_sc_hd__inv_2
*CAP
1 *216:A2 0.000138684
2 *185:Y 0.000138684
3 *216:A2 *48:6 5.70419e-05
*RES
1 *185:Y *216:A2 48.5479 
*END

*D_NET *21 0.00390696
*CONN
*I *199:B1 I *D sky130_fd_sc_hd__o32ai_1
*I *192:A1 I *D sky130_fd_sc_hd__a21oi_1
*I *189:B1 I *D sky130_fd_sc_hd__o211a_1
*I *186:Y O *D sky130_fd_sc_hd__nand3_1
*CAP
1 *199:B1 0
2 *192:A1 1.15301e-05
3 *189:B1 0
4 *186:Y 0
5 *21:38 0.000374958
6 *21:19 0.000711647
7 *21:10 0.000100058
8 *21:4 0.000425217
9 *192:A1 *184:A 0
10 *192:A1 *192:A2 2.77232e-05
11 *192:A1 *76:62 1.14154e-05
12 *21:10 *189:A2 1.02387e-05
13 *21:10 *65:10 5.56203e-05
14 *21:10 *75:23 0.000199701
15 *21:19 *192:A2 0.000111596
16 *21:19 *65:14 4.5051e-05
17 *21:19 *65:24 1.24376e-05
18 *21:19 *72:44 5.61255e-06
19 *21:19 *76:47 0.000153155
20 *21:19 *76:62 2.95025e-05
21 *21:38 *184:A 0.00022305
22 *21:38 *190:B 9.77922e-06
23 *21:38 *195:B 5.50049e-05
24 *21:38 *206:A 1.01436e-05
25 *21:38 *28:14 6.11356e-05
26 *21:38 *66:14 0.000504783
27 *21:38 *72:25 5.94125e-05
28 *21:38 *76:62 0.000212508
29 *237:A *21:10 4.21594e-06
30 *19:6 *21:38 0.000481463
*RES
1 *186:Y *21:4 23 
2 *21:4 *21:10 32.61 
3 *21:10 *189:B1 23 
4 *21:4 *21:19 6.83571 
5 *21:19 *192:A1 23.4971 
6 *21:19 *21:38 42.1179 
7 *21:38 *199:B1 23 
*END

*D_NET *22 0.00278259
*CONN
*I *201:A I *D sky130_fd_sc_hd__or4_1
*I *202:A1 I *D sky130_fd_sc_hd__o31ai_1
*I *187:Y O *D sky130_fd_sc_hd__nor2_1
*CAP
1 *201:A 0.000280411
2 *202:A1 0
3 *187:Y 0.000570322
4 *22:10 0.000850732
5 *201:A *201:C 1.67818e-05
6 *201:A *203:A 2.99723e-05
7 *201:A *27:6 7.42621e-05
8 *201:A *35:18 0.000265377
9 *22:10 *27:6 0.000336778
10 *22:10 *73:57 0.000357953
*RES
1 *187:Y *22:10 34.6207 
2 *22:10 *202:A1 23 
3 *22:10 *201:A 29.5664 
*END

*D_NET *23 0.000433933
*CONN
*I *189:C1 I *D sky130_fd_sc_hd__o211a_1
*I *188:X O *D sky130_fd_sc_hd__a21o_1
*CAP
1 *189:C1 0.000164875
2 *188:X 0.000164875
3 *189:C1 *188:A1 0.00010018
4 *189:C1 *189:A2 4.00259e-06
5 *189:C1 *75:12 0
*RES
1 *188:X *189:C1 49.5007 
*END

*D_NET *24 0.00295766
*CONN
*I *198:D_N I *D sky130_fd_sc_hd__or4b_1
*I *192:B1 I *D sky130_fd_sc_hd__a21oi_1
*I *190:X O *D sky130_fd_sc_hd__and4_1
*CAP
1 *198:D_N 0
2 *192:B1 1.08768e-05
3 *190:X 0
4 *24:25 0.000170757
5 *24:19 0.00108024
6 *24:4 0.000920356
7 *192:B1 *72:40 5.50049e-05
8 *192:B1 *76:62 5.67058e-05
9 *24:19 *196:A 0.000188423
10 *24:19 *196:B 3.53115e-05
11 *24:19 *206:A 6.82101e-05
12 *24:19 *207:A0 1.59071e-05
13 *24:19 *207:S 5.50049e-05
14 *24:19 *75:73 0
15 *24:19 *78:37 0.00024441
16 *24:19 *78:50 4.96303e-05
17 *24:19 *78:56 6.82228e-06
18 *24:25 *207:S 0
19 *24:25 *29:8 0
20 *24:25 *31:16 0
21 *24:25 *33:10 0
*RES
1 *190:X *24:4 23 
2 *24:4 *192:B1 23.6214 
3 *24:4 *24:19 46.9236 
4 *24:19 *24:25 32.9621 
5 *24:25 *198:D_N 23 
*END

*D_NET *25 0.000262593
*CONN
*I *192:A2 I *D sky130_fd_sc_hd__a21oi_1
*I *191:Y O *D sky130_fd_sc_hd__nand2_1
*CAP
1 *192:A2 2.73137e-05
2 *191:Y 2.73137e-05
3 *192:A2 *76:62 6.86462e-05
4 *192:A1 *192:A2 2.77232e-05
5 *21:19 *192:A2 0.000111596
*RES
1 *191:Y *192:A2 47.595 
*END

*D_NET *26 0.00621689
*CONN
*I *209:S I *D sky130_fd_sc_hd__mux2_1
*I *201:B I *D sky130_fd_sc_hd__or4_1
*I *202:A2 I *D sky130_fd_sc_hd__o31ai_1
*I *218:A2 I *D sky130_fd_sc_hd__a21oi_1
*I *217:B I *D sky130_fd_sc_hd__and3_1
*I *193:X O *D sky130_fd_sc_hd__and3_1
*CAP
1 *209:S 0
2 *201:B 0.000129289
3 *202:A2 0
4 *218:A2 2.34823e-05
5 *217:B 0.000235604
6 *193:X 5.67488e-05
7 *26:34 0.00122068
8 *26:26 0.0012852
9 *26:8 0.000385227
10 *26:6 0.000376703
11 *201:B *201:C 0.000128723
12 *201:B *27:6 7.84431e-05
13 *217:B *50:14 0.00014196
14 *218:A2 *217:C 0
15 *26:6 *208:B 0
16 *26:6 *217:C 0
17 *26:8 *217:C 0.000127544
18 *26:8 *218:A1 4.34876e-05
19 *26:8 *50:14 0.000270682
20 *26:26 *208:B 2.93747e-05
21 *26:26 *50:14 3.05768e-05
22 *26:26 *73:33 2.60998e-05
23 *26:26 *74:48 1.56762e-05
24 *26:26 *74:65 9.91798e-05
25 *26:26 *76:97 0.000143655
26 *26:34 *187:B 0.000235575
27 *26:34 *27:6 0.00111576
28 *26:34 *76:97 1.72202e-05
*RES
1 *193:X *26:6 24.2014 
2 *26:6 *26:8 4.43286 
3 *26:8 *217:B 26.8529 
4 *26:8 *218:A2 23.4971 
5 *26:6 *26:26 4.90929 
6 *26:26 *26:34 18.1975 
7 *26:34 *202:A2 23 
8 *26:34 *201:B 25.2889 
9 *26:26 *209:S 23 
*END

*D_NET *27 0.00270425
*CONN
*I *201:C I *D sky130_fd_sc_hd__or4_1
*I *202:A3 I *D sky130_fd_sc_hd__o31ai_1
*I *194:Y O *D sky130_fd_sc_hd__a21oi_1
*CAP
1 *201:C 7.91938e-05
2 *202:A3 0
3 *194:Y 0.000246824
4 *27:6 0.000326017
5 *201:C *202:B1 2.93747e-05
6 *201:C *35:18 4.70005e-05
7 *27:6 *187:B 0.00011939
8 *27:6 *73:57 0.000105706
9 *201:A *201:C 1.67818e-05
10 *201:A *27:6 7.42621e-05
11 *201:B *201:C 0.000128723
12 *201:B *27:6 7.84431e-05
13 *22:10 *27:6 0.000336778
14 *26:34 *27:6 0.00111576
*RES
1 *194:Y *27:6 36.0086 
2 *27:6 *202:A3 23 
3 *27:6 *201:C 25.5479 
*END

*D_NET *28 0.00214831
*CONN
*I *207:S I *D sky130_fd_sc_hd__mux2_1
*I *198:A I *D sky130_fd_sc_hd__or4b_1
*I *199:A1 I *D sky130_fd_sc_hd__o32ai_1
*I *195:X O *D sky130_fd_sc_hd__and3_1
*CAP
1 *207:S 0.000185064
2 *198:A 0.000166982
3 *199:A1 0
4 *195:X 0.00024827
5 *28:18 0.000221102
6 *28:14 0.000487454
7 *198:A *198:C 0.00030433
8 *198:A *32:8 4.95081e-05
9 *207:S *196:A 5.50049e-05
10 *207:S *206:A 0
11 *207:S *29:8 7.03869e-05
12 *28:14 *29:8 3.15813e-05
13 *28:14 *32:8 9.84794e-05
14 *28:18 *198:C 9.67842e-05
15 *19:6 *28:14 1.72202e-05
16 *21:38 *28:14 6.11356e-05
17 *24:19 *207:S 5.50049e-05
18 *24:25 *207:S 0
*RES
1 *195:X *28:14 42.0186 
2 *28:14 *28:18 16.0979 
3 *28:18 *199:A1 23 
4 *28:18 *198:A 28.0336 
5 *28:14 *207:S 41.5836 
*END

*D_NET *29 0.00115456
*CONN
*I *198:B I *D sky130_fd_sc_hd__or4b_1
*I *199:A2 I *D sky130_fd_sc_hd__o32ai_1
*I *196:Y O *D sky130_fd_sc_hd__nor2_1
*CAP
1 *198:B 0.000139449
2 *199:A2 6.61387e-05
3 *196:Y 0.000157012
4 *29:10 0.000205588
5 *29:8 0.000157012
6 *198:B *32:8 0.000228909
7 *199:A2 *32:8 9.84794e-05
8 *207:S *29:8 7.03869e-05
9 *24:25 *29:8 0
10 *28:14 *29:8 3.15813e-05
*RES
1 *196:Y *29:8 40.9621 
2 *29:8 *29:10 15 
3 *29:10 *199:A2 24.0979 
4 *29:10 *198:B 25.5271 
*END

*D_NET *30 0.00205645
*CONN
*I *199:A3 I *D sky130_fd_sc_hd__o32ai_1
*I *198:C I *D sky130_fd_sc_hd__or4b_1
*I *197:Y O *D sky130_fd_sc_hd__a21oi_1
*CAP
1 *199:A3 0
2 *198:C 0.0001032
3 *197:Y 0.000367466
4 *30:10 0.000470666
5 *198:C *32:8 0.000443679
6 *30:10 *195:A 5.56356e-05
7 *30:10 *195:C 6.25714e-05
8 *30:10 *32:8 1.56665e-05
9 *30:10 *72:29 8.29723e-05
10 *198:A *198:C 0.00030433
11 *19:6 *30:10 5.34798e-05
12 *28:18 *198:C 9.67842e-05
*RES
1 *197:Y *30:10 28.9398 
2 *30:10 *198:C 28.4064 
3 *30:10 *199:A3 23 
*END

*D_NET *31 0.00207943
*CONN
*I *200:A I *D sky130_fd_sc_hd__nand2_1
*I *235:A I *D sky130_fd_sc_hd__nand3_1
*I *213:A1 I *D sky130_fd_sc_hd__a21o_1
*I *198:X O *D sky130_fd_sc_hd__or4b_1
*CAP
1 *200:A 0
2 *235:A 0.000178715
3 *213:A1 4.25104e-05
4 *198:X 0.000108714
5 *31:16 0.000705072
6 *31:10 0.000592561
7 *213:A1 *235:C 5.50049e-05
8 *235:A *213:A2 4.6595e-05
9 *235:A *235:C 5.50106e-05
10 *31:10 *32:8 2.8936e-05
11 *31:10 *33:10 5.67058e-05
12 *31:16 *33:10 0.000186687
13 *31:16 *34:19 2.29192e-05
14 *24:25 *31:16 0
*RES
1 *198:X *31:10 25.5686 
2 *31:10 *31:16 37.54 
3 *31:16 *213:A1 23.6214 
4 *31:16 *235:A 25.9 
5 *31:10 *200:A 23 
*END

*D_NET *32 0.00158081
*CONN
*I *200:B I *D sky130_fd_sc_hd__nand2_1
*I *199:Y O *D sky130_fd_sc_hd__o32ai_1
*CAP
1 *200:B 0
2 *199:Y 0.000280223
3 *32:8 0.000280223
4 *198:A *32:8 4.95081e-05
5 *198:B *32:8 0.000228909
6 *198:C *32:8 0.000443679
7 *199:A2 *32:8 9.84794e-05
8 *19:6 *32:8 5.67058e-05
9 *28:14 *32:8 9.84794e-05
10 *30:10 *32:8 1.56665e-05
11 *31:10 *32:8 2.8936e-05
*RES
1 *199:Y *32:8 32.0936 
2 *32:8 *200:B 23 
*END

*D_NET *33 0.000921879
*CONN
*I *201:D I *D sky130_fd_sc_hd__or4_1
*I *202:B1 I *D sky130_fd_sc_hd__o31ai_1
*I *200:Y O *D sky130_fd_sc_hd__nand2_1
*CAP
1 *201:D 0
2 *202:B1 1.80505e-05
3 *200:Y 0.000279003
4 *33:12 1.80505e-05
5 *33:10 0.000279003
6 *202:B1 *35:18 5.50049e-05
7 *201:C *202:B1 2.93747e-05
8 *24:25 *33:10 0
9 *31:10 *33:10 5.67058e-05
10 *31:16 *33:10 0.000186687
*RES
1 *200:Y *33:10 43.6964 
2 *33:10 *33:12 15 
3 *33:12 *202:B1 23.6214 
4 *33:12 *201:D 23 
*END

*D_NET *34 0.000721357
*CONN
*I *235:B I *D sky130_fd_sc_hd__nand3_1
*I *213:A2 I *D sky130_fd_sc_hd__a21o_1
*I *203:A I *D sky130_fd_sc_hd__and2_1
*I *201:X O *D sky130_fd_sc_hd__or4_1
*CAP
1 *235:B 0
2 *213:A2 3.83243e-05
3 *203:A 4.80715e-05
4 *201:X 0
5 *34:19 0.000176766
6 *34:4 0.000186514
7 *203:A *35:18 6.07084e-05
8 *213:A2 *235:C 5.67058e-05
9 *213:A2 *45:10 5.47808e-05
10 *34:19 *44:10 0
11 *34:19 *67:8 0
12 *201:A *203:A 2.99723e-05
13 *235:A *213:A2 4.6595e-05
14 *31:16 *34:19 2.29192e-05
*RES
1 *201:X *34:4 23 
2 *34:4 *203:A 24.4707 
3 *34:4 *34:19 31.9057 
4 *34:19 *213:A2 24.5743 
5 *34:19 *235:B 23 
*END

*D_NET *35 0.000902234
*CONN
*I *203:B I *D sky130_fd_sc_hd__and2_1
*I *202:Y O *D sky130_fd_sc_hd__o31ai_1
*CAP
1 *203:B 0
2 *202:Y 0.000237072
3 *35:18 0.000237072
4 *201:A *35:18 0.000265377
5 *201:C *35:18 4.70005e-05
6 *202:B1 *35:18 5.50049e-05
7 *203:A *35:18 6.07084e-05
*RES
1 *202:Y *35:18 30.1879 
2 *35:18 *203:B 23 
*END

*D_NET *36 0.00197177
*CONN
*I *212:A I *D sky130_fd_sc_hd__xor2_1
*I *227:C I *D sky130_fd_sc_hd__and3_1
*I *204:Y O *D sky130_fd_sc_hd__nand2_1
*CAP
1 *212:A 0
2 *227:C 0.000394735
3 *204:Y 0
4 *36:19 0.000573698
5 *36:4 0.000968433
6 *227:C *204:B 2.64616e-05
7 *227:C *227:B 8.44405e-06
*RES
1 *204:Y *36:4 23 
2 *36:4 *227:C 27.5157 
3 *36:4 *36:19 37.7679 
4 *36:19 *212:A 23 
*END

*D_NET *37 0.000869633
*CONN
*I *217:C I *D sky130_fd_sc_hd__and3_1
*I *218:B1 I *D sky130_fd_sc_hd__a21oi_1
*I *205:X O *D sky130_fd_sc_hd__and4_1
*CAP
1 *217:C 7.97373e-05
2 *218:B1 0
3 *205:X 0.000165113
4 *37:12 7.97373e-05
5 *37:10 0.000165113
6 *217:C *218:A1 5.50106e-05
7 *37:10 *75:40 4.6318e-06
8 *37:10 *77:41 0.000163361
9 *37:10 *78:20 2.93845e-05
10 *218:A2 *217:C 0
11 *26:6 *217:C 0
12 *26:8 *217:C 0.000127544
*RES
1 *205:X *37:10 40.8793 
2 *37:10 *37:12 15 
3 *37:12 *218:B1 23 
4 *37:12 *217:C 25.2993 
*END

*D_NET *38 0.00062687
*CONN
*I *207:A0 I *D sky130_fd_sc_hd__mux2_1
*I *206:Y O *D sky130_fd_sc_hd__nand2_1
*CAP
1 *207:A0 6.44272e-05
2 *206:Y 6.44272e-05
3 *207:A0 *196:A 2.89076e-05
4 *207:A0 *206:A 0.000183449
5 *207:A0 *78:56 0.000269752
6 *24:19 *207:A0 1.59071e-05
*RES
1 *206:Y *207:A0 49.0036 
*END

*D_NET *39 0.00136267
*CONN
*I *210:A I *D sky130_fd_sc_hd__nor2_1
*I *211:A I *D sky130_fd_sc_hd__xor2_1
*I *207:X O *D sky130_fd_sc_hd__mux2_1
*CAP
1 *210:A 0.000187516
2 *211:A 4.26204e-05
3 *207:X 0.000288234
4 *39:10 0.000230136
5 *39:8 0.000288234
6 *210:A *210:B 7.44835e-05
7 *210:A *42:10 1.14876e-05
8 *211:A *210:B 0.000100061
9 *39:8 *73:57 6.97718e-05
10 *39:8 *77:98 7.01277e-05
*RES
1 *207:X *39:8 42.7229 
2 *39:8 *39:10 15 
3 *39:10 *211:A 24.0979 
4 *39:10 *210:A 26.5214 
*END

*D_NET *40 0.000529152
*CONN
*I *209:A0 I *D sky130_fd_sc_hd__mux2_1
*I *208:Y O *D sky130_fd_sc_hd__nand2_1
*CAP
1 *209:A0 0.000150122
2 *208:Y 0.000150122
3 *209:A0 *74:48 0.000228909
*RES
1 *208:Y *209:A0 48.5271 
*END

*D_NET *41 0.00142695
*CONN
*I *210:B I *D sky130_fd_sc_hd__nor2_1
*I *211:B I *D sky130_fd_sc_hd__xor2_1
*I *209:X O *D sky130_fd_sc_hd__mux2_1
*CAP
1 *210:B 0.000150906
2 *211:B 0
3 *209:X 9.88187e-05
4 *41:12 0.000394647
5 *41:8 0.00034256
6 *210:B *42:10 6.17437e-06
7 *210:B *43:10 2.93747e-05
8 *41:8 *74:44 0.000166281
9 *41:12 *73:46 6.36464e-05
10 *210:A *210:B 7.44835e-05
11 *211:A *210:B 0.000100061
*RES
1 *209:X *41:8 40.2579 
2 *41:8 *41:12 19.4329 
3 *41:12 *211:B 23 
4 *41:12 *210:B 26.5007 
*END

*D_NET *42 0.000431677
*CONN
*I *221:B1 I *D sky130_fd_sc_hd__a31o_1
*I *210:Y O *D sky130_fd_sc_hd__nor2_1
*CAP
1 *221:B1 0
2 *210:Y 0.000130346
3 *42:10 0.000130346
4 *42:10 *204:A 1.14452e-05
5 *42:10 *77:98 0.000141879
6 *210:A *42:10 1.14876e-05
7 *210:B *42:10 6.17437e-06
*RES
1 *210:Y *42:10 40.5271 
2 *42:10 *221:B1 38 
*END

*D_NET *43 0.00123763
*CONN
*I *212:B I *D sky130_fd_sc_hd__xor2_1
*I *221:A3 I *D sky130_fd_sc_hd__a31o_1
*I *211:X O *D sky130_fd_sc_hd__xor2_1
*CAP
1 *212:B 0.00038274
2 *221:A3 0
3 *211:X 0.000137665
4 *43:12 0.00038274
5 *43:10 0.000137665
6 *43:10 *204:B 2.55642e-05
7 *43:10 *73:57 0.000141879
8 *210:B *43:10 2.93747e-05
*RES
1 *211:X *43:10 40.8793 
2 *43:10 *43:12 15 
3 *43:12 *221:A3 23 
4 *43:12 *212:B 29.3593 
*END

*D_NET *44 0.000929985
*CONN
*I *213:B1 I *D sky130_fd_sc_hd__a21o_1
*I *235:C I *D sky130_fd_sc_hd__nand3_1
*I *212:X O *D sky130_fd_sc_hd__xor2_1
*CAP
1 *213:B1 0
2 *235:C 9.0629e-05
3 *212:X 0.000271062
4 *44:12 9.0629e-05
5 *44:10 0.000271062
6 *235:C *45:10 3.98818e-05
7 *213:A1 *235:C 5.50049e-05
8 *213:A2 *235:C 5.67058e-05
9 *235:A *235:C 5.50106e-05
10 *34:19 *44:10 0
*RES
1 *212:X *44:10 41.8321 
2 *44:10 *44:12 15 
3 *44:12 *235:C 25.5479 
4 *44:12 *213:B1 23 
*END

*D_NET *45 0.0027138
*CONN
*I *225:A I *D sky130_fd_sc_hd__xnor2_1
*I *224:A_N I *D sky130_fd_sc_hd__and2b_1
*I *236:A I *D sky130_fd_sc_hd__and2_1
*I *213:X O *D sky130_fd_sc_hd__a21o_1
*CAP
1 *225:A 0
2 *224:A_N 0.000159644
3 *236:A 0
4 *213:X 0.000362782
5 *45:23 0.000675712
6 *45:10 0.00087885
7 *224:A_N *225:B 0.000361027
8 *45:10 *64:8 0.000169674
9 *45:23 *64:8 1.14452e-05
10 *45:23 *68:10 0
11 *213:A2 *45:10 5.47808e-05
12 *235:C *45:10 3.98818e-05
*RES
1 *213:X *45:10 44.2143 
2 *45:10 *236:A 38 
3 *45:10 *45:23 24.8186 
4 *45:23 *224:A_N 27.4329 
5 *45:23 *225:A 23 
*END

*D_NET *46 0.000998948
*CONN
*I *216:B1 I *D sky130_fd_sc_hd__a211o_1
*I *214:Y O *D sky130_fd_sc_hd__a21oi_1
*CAP
1 *216:B1 0
2 *214:Y 0.000211527
3 *46:10 0.000211527
4 *46:10 *215:A 0.000114083
5 *46:10 *215:C 0
6 *46:10 *216:C1 6.07611e-06
7 *46:10 *73:19 0.000139357
8 *46:10 *74:23 4.06512e-05
9 *46:10 *77:41 0.000117244
10 *46:10 *78:10 6.07611e-06
11 *46:10 *78:14 1.47563e-05
12 *4:15 *46:10 0.000137651
*RES
1 *214:Y *46:10 42.8886 
2 *46:10 *216:B1 38 
*END

*D_NET *47 0.000977664
*CONN
*I *234:A2 I *D sky130_fd_sc_hd__a211o_1
*I *216:C1 I *D sky130_fd_sc_hd__a211o_1
*I *215:X O *D sky130_fd_sc_hd__and3_1
*CAP
1 *234:A2 0.000297137
2 *216:C1 5.48498e-05
3 *215:X 0
4 *47:6 0.000351986
5 *216:C1 *215:A 5.67058e-05
6 *216:C1 *48:6 5.50049e-05
7 *216:C1 *74:23 8.94487e-05
8 *216:C1 *78:10 0
9 *234:A2 *234:A1 5.50106e-05
10 *234:A2 *59:10 0
11 *234:A2 *60:8 0
12 *234:A2 *61:10 0
13 *234:A2 *74:23 1.14452e-05
14 *234:A2 *78:10 0
15 *46:10 *216:C1 6.07611e-06
*RES
1 *215:X *47:6 38 
2 *47:6 *216:C1 39.8229 
3 *47:6 *234:A2 43.3443 
*END

*D_NET *48 0.00220216
*CONN
*I *220:A I *D sky130_fd_sc_hd__xor2_1
*I *228:A1 I *D sky130_fd_sc_hd__o21bai_1
*I *216:X O *D sky130_fd_sc_hd__a211o_1
*CAP
1 *220:A 0.000306635
2 *228:A1 0
3 *216:X 0.000245322
4 *48:12 0.00015798
5 *48:6 0.000709937
6 *220:A *74:38 0.000353947
7 *48:6 *215:A 0.000133784
8 *48:6 *74:23 2.93845e-05
9 *48:6 *74:38 4.6595e-05
10 *48:12 *215:C 7.03663e-05
11 *48:12 *50:14 1.14452e-05
12 *48:12 *59:10 0
13 *48:12 *74:23 2.472e-05
14 *216:A2 *48:6 5.70419e-05
15 *216:C1 *48:6 5.50049e-05
*RES
1 *216:X *48:6 28.3857 
2 *48:6 *48:12 32.9621 
3 *48:12 *228:A1 23 
4 *48:6 *220:A 30.4571 
*END

*D_NET *49 0.00151914
*CONN
*I *219:A I *D sky130_fd_sc_hd__or2_1
*I *228:B1_N I *D sky130_fd_sc_hd__o21bai_1
*I *217:X O *D sky130_fd_sc_hd__and3_1
*CAP
1 *219:A 0.000126634
2 *228:B1_N 0
3 *217:X 0.000136411
4 *49:12 0.000344413
5 *49:8 0.00035419
6 *219:A *219:B 5.67058e-05
7 *49:8 *215:C 1.01436e-05
8 *49:8 *50:14 9.27814e-05
9 *49:8 *73:25 0.000219873
10 *49:8 *76:12 0
11 *49:8 *76:30 0.000110913
12 *49:12 *219:B 4.75937e-05
13 *49:12 *50:18 1.94812e-05
*RES
1 *217:X *49:8 42.0186 
2 *49:8 *49:12 18.0036 
3 *49:12 *228:B1_N 23 
4 *49:12 *219:A 25.9207 
*END

*D_NET *50 0.00208096
*CONN
*I *219:B I *D sky130_fd_sc_hd__or2_1
*I *228:A2 I *D sky130_fd_sc_hd__o21bai_1
*I *218:Y O *D sky130_fd_sc_hd__a21oi_1
*CAP
1 *219:B 5.20461e-05
2 *228:A2 0
3 *218:Y 0.000417241
4 *50:18 8.63274e-05
5 *50:14 0.000451522
6 *219:B *59:10 5.70419e-05
7 *50:14 *215:C 2.54749e-05
8 *50:14 *73:33 4.08537e-05
9 *50:14 *75:40 3.56537e-05
10 *50:14 *76:30 0.000243578
11 *50:14 *76:90 0
12 *217:B *50:14 0.00014196
13 *219:A *219:B 5.67058e-05
14 *26:8 *50:14 0.000270682
15 *26:26 *50:14 3.05768e-05
16 *48:12 *50:14 1.14452e-05
17 *49:8 *50:14 9.27814e-05
18 *49:12 *219:B 4.75937e-05
19 *49:12 *50:18 1.94812e-05
*RES
1 *218:Y *50:14 48.9579 
2 *50:14 *50:18 15.6214 
3 *50:18 *228:A2 23 
4 *50:18 *219:B 25.0507 
*END

*D_NET *51 0.000538918
*CONN
*I *220:B I *D sky130_fd_sc_hd__xor2_1
*I *219:X O *D sky130_fd_sc_hd__or2_1
*CAP
1 *220:B 0
2 *219:X 0.000228641
3 *51:10 0.000228641
4 *51:10 *59:10 0
5 *51:10 *74:44 8.16356e-05
*RES
1 *219:X *51:10 41.8321 
2 *51:10 *220:B 38 
*END

*D_NET *52 0.00138121
*CONN
*I *223:A I *D sky130_fd_sc_hd__xor2_1
*I *222:A I *D sky130_fd_sc_hd__and2_1
*I *220:X O *D sky130_fd_sc_hd__xor2_1
*CAP
1 *223:A 8.65771e-05
2 *222:A 0
3 *220:X 0.00025909
4 *52:18 0.000257854
5 *52:14 0.000430367
6 *223:A *223:B 5.4966e-05
7 *52:14 *222:B 0
8 *52:14 *227:B 0.000102389
9 *52:14 *53:14 0
10 *52:14 *58:10 5.79559e-05
11 *52:18 *222:B 5.56279e-05
12 *52:18 *223:B 5.56356e-05
13 *52:18 *54:10 2.07484e-05
*RES
1 *220:X *52:14 42.4743 
2 *52:14 *52:18 18.48 
3 *52:18 *222:A 23 
4 *52:18 *223:A 25.0714 
*END

*D_NET *53 0.00126715
*CONN
*I *222:B I *D sky130_fd_sc_hd__and2_1
*I *223:B I *D sky130_fd_sc_hd__xor2_1
*I *221:X O *D sky130_fd_sc_hd__a31o_1
*CAP
1 *222:B 8.53429e-05
2 *223:B 9.56799e-05
3 *221:X 0.000308353
4 *53:14 0.000489376
5 *53:14 *204:B 0.00012217
6 *223:A *223:B 5.4966e-05
7 *52:14 *222:B 0
8 *52:14 *53:14 0
9 *52:18 *222:B 5.56279e-05
10 *52:18 *223:B 5.56356e-05
*RES
1 *221:X *53:14 43.7586 
2 *53:14 *223:B 40.0714 
3 *53:14 *222:B 39.4707 
*END

*D_NET *54 0.000560178
*CONN
*I *226:A I *D sky130_fd_sc_hd__nor2_1
*I *232:A1 I *D sky130_fd_sc_hd__o21ba_1
*I *222:X O *D sky130_fd_sc_hd__and2_1
*CAP
1 *226:A 1.86059e-05
2 *232:A1 0
3 *222:X 0.000172984
4 *54:14 4.66968e-05
5 *54:10 0.000201075
6 *226:A *232:A2 4.44329e-05
7 *54:14 *232:A2 5.56356e-05
8 *52:18 *54:10 2.07484e-05
*RES
1 *222:X *54:10 40.5271 
2 *54:10 *54:14 15.6214 
3 *54:14 *232:A1 23 
4 *54:14 *226:A 23.6214 
*END

*D_NET *55 0.00156985
*CONN
*I *225:B I *D sky130_fd_sc_hd__xnor2_1
*I *224:B I *D sky130_fd_sc_hd__and2b_1
*I *223:X O *D sky130_fd_sc_hd__xor2_1
*CAP
1 *225:B 0.000215109
2 *224:B 6.00311e-05
3 *223:X 0.000329271
4 *55:12 0.00027514
5 *55:10 0.000329271
6 *224:A_N *225:B 0.000361027
*RES
1 *223:X *55:10 43.8414 
2 *55:10 *55:12 15 
3 *55:12 *224:B 24.1186 
4 *55:12 *225:B 28.3857 
*END

*D_NET *56 0.00110791
*CONN
*I *226:B I *D sky130_fd_sc_hd__nor2_1
*I *232:A2 I *D sky130_fd_sc_hd__o21ba_1
*I *224:X O *D sky130_fd_sc_hd__and2b_1
*CAP
1 *226:B 0
2 *232:A2 0.000193337
3 *224:X 0.000308963
4 *56:8 0.000502299
5 *232:A2 *232:B1_N 3.23857e-06
6 *226:A *232:A2 4.44329e-05
7 *54:14 *232:A2 5.56356e-05
*RES
1 *224:X *56:8 28.8829 
2 *56:8 *232:A2 26.5214 
3 *56:8 *226:B 23 
*END

*D_NET *57 0.0010138
*CONN
*I *233:A I *D sky130_fd_sc_hd__xor2_1
*I *226:Y O *D sky130_fd_sc_hd__nor2_1
*CAP
1 *233:A 0.000350712
2 *226:Y 0.000127718
3 *57:8 0.000478429
4 *233:A *250:A 5.69373e-05
*RES
1 *226:Y *57:8 40.2579 
2 *57:8 *233:A 44.235 
*END

*D_NET *58 0.00148766
*CONN
*I *230:A I *D sky130_fd_sc_hd__nor2_1
*I *229:A I *D sky130_fd_sc_hd__and2_1
*I *227:X O *D sky130_fd_sc_hd__and3_1
*CAP
1 *230:A 0
2 *229:A 9.74465e-05
3 *227:X 0.000440134
4 *58:12 9.74465e-05
5 *58:10 0.000440134
6 *229:A *230:B 5.67058e-05
7 *229:A *61:10 1.76557e-05
8 *58:10 *227:B 7.12098e-05
9 *58:10 *59:10 0
10 *58:10 *74:38 0.00020897
11 *52:14 *58:10 5.79559e-05
*RES
1 *227:X *58:10 44.6907 
2 *58:10 *58:12 15 
3 *58:12 *229:A 25.0714 
4 *58:12 *230:A 23 
*END

*D_NET *59 0.00101209
*CONN
*I *230:B I *D sky130_fd_sc_hd__nor2_1
*I *229:B I *D sky130_fd_sc_hd__and2_1
*I *228:Y O *D sky130_fd_sc_hd__o21bai_1
*CAP
1 *230:B 5.89296e-05
2 *229:B 0
3 *228:Y 0.000361723
4 *59:12 5.89296e-05
5 *59:10 0.000361723
6 *230:B *61:10 5.70419e-05
7 *59:10 *74:23 0
8 *219:B *59:10 5.70419e-05
9 *229:A *230:B 5.67058e-05
10 *234:A2 *59:10 0
11 *48:12 *59:10 0
12 *51:10 *59:10 0
13 *58:10 *59:10 0
*RES
1 *228:Y *59:10 44.1729 
2 *59:10 *59:12 15 
3 *59:12 *229:B 23 
4 *59:12 *230:B 24.5743 
*END

*D_NET *60 0.00101127
*CONN
*I *231:A I *D sky130_fd_sc_hd__or2_1
*I *234:B1 I *D sky130_fd_sc_hd__a211o_1
*I *229:X O *D sky130_fd_sc_hd__and2_1
*CAP
1 *231:A 0.000186213
2 *234:B1 0.000142332
3 *229:X 6.52232e-05
4 *60:10 0.000328545
5 *60:8 6.52232e-05
6 *231:A *63:6 0.000123944
7 *234:B1 *234:A1 2.02517e-05
8 *234:B1 *63:6 5.41288e-05
9 *60:8 *61:10 2.54046e-05
10 *234:A2 *60:8 0
*RES
1 *229:X *60:8 39.2014 
2 *60:8 *60:10 15 
3 *60:10 *234:B1 25.4236 
4 *60:10 *231:A 26.0243 
*END

*D_NET *61 0.000480198
*CONN
*I *231:B I *D sky130_fd_sc_hd__or2_1
*I *230:Y O *D sky130_fd_sc_hd__nor2_1
*CAP
1 *231:B 0
2 *230:Y 0.000190048
3 *61:10 0.000190048
4 *229:A *61:10 1.76557e-05
5 *230:B *61:10 5.70419e-05
6 *234:A2 *61:10 0
7 *60:8 *61:10 2.54046e-05
*RES
1 *230:Y *61:10 41.1279 
2 *61:10 *231:B 38 
*END

*D_NET *62 0.000985455
*CONN
*I *233:B I *D sky130_fd_sc_hd__xor2_1
*I *232:B1_N I *D sky130_fd_sc_hd__o21ba_1
*I *231:X O *D sky130_fd_sc_hd__or2_1
*CAP
1 *233:B 0
2 *232:B1_N 0.000144097
3 *231:X 8.92317e-05
4 *62:23 0.000135173
5 *62:6 0.000368502
6 *232:B1_N *63:6 0.000146197
7 *62:6 *63:6 9.90162e-05
8 *232:A2 *232:B1_N 3.23857e-06
*RES
1 *231:X *62:6 25.0507 
2 *62:6 *232:B1_N 26.5214 
3 *62:6 *62:23 32.2579 
4 *62:23 *233:B 23 
*END

*D_NET *63 0.00103278
*CONN
*I *234:C1 I *D sky130_fd_sc_hd__a211o_1
*I *232:X O *D sky130_fd_sc_hd__o21ba_1
*CAP
1 *234:C1 0
2 *232:X 0.000304747
3 *63:6 0.000304747
4 *231:A *63:6 0.000123944
5 *232:B1_N *63:6 0.000146197
6 *234:B1 *63:6 5.41288e-05
7 *62:6 *63:6 9.90162e-05
*RES
1 *232:X *63:6 30.7679 
2 *63:6 *234:C1 23 
*END
