*SPEF "ieee 1481-1999"
*DESIGN "mult8_2bits_2op_e2471"
*DATE "12:17:22 Wednesday September 17, 2025"
*VENDOR "The OpenROAD Project"
*PROGRAM "OpenROAD"
*VERSION "edf00dff99f6c40d67a30c0e22a8191c5d2ed9d6"
*DESIGN_FLOW "NAME_SCOPE LOCAL" "PIN_CAP NONE"
*DIVIDER /
*DELIMITER :
*BUS_DELIMITER []
*T_UNIT 1 NS
*C_UNIT 1 PF
*R_UNIT 1 OHM
*L_UNIT 1 HENRY

*NAME_MAP
*1 A[0]
*2 A[1]
*3 A[2]
*4 A[3]
*5 A[4]
*6 A[5]
*7 A[6]
*8 A[7]
*9 B[0]
*10 B[1]
*11 B[2]
*12 B[3]
*13 B[4]
*14 B[5]
*15 B[6]
*16 B[7]
*17 P[0]
*18 P[10]
*19 P[11]
*20 P[12]
*21 P[13]
*22 P[14]
*23 P[15]
*24 P[1]
*25 P[2]
*26 P[3]
*27 P[4]
*28 P[5]
*29 P[6]
*30 P[7]
*31 P[8]
*32 P[9]
*35 _000_
*36 _001_
*37 _002_
*38 _003_
*39 _004_
*40 _005_
*41 _006_
*42 _007_
*43 _008_
*44 _009_
*45 _010_
*46 _011_
*47 _012_
*48 _013_
*49 _014_
*50 _015_
*51 _016_
*52 _017_
*53 _018_
*54 _019_
*55 _020_
*56 _021_
*57 _022_
*58 _023_
*59 _024_
*60 _025_
*61 _026_
*62 _027_
*63 _028_
*64 _029_
*65 _030_
*66 _031_
*67 _032_
*68 _033_
*69 _034_
*70 _035_
*71 _036_
*72 _037_
*73 _038_
*74 _039_
*75 _040_
*76 _041_
*77 _042_
*78 _043_
*79 _044_
*80 _045_
*81 _046_
*82 _047_
*83 _048_
*84 _049_
*85 _050_
*86 _051_
*87 _052_
*88 _053_
*89 _054_
*90 _055_
*91 _056_
*92 _057_
*93 _058_
*94 _059_
*95 _060_
*96 _061_
*97 _062_
*98 _063_
*99 _064_
*100 _065_
*101 _066_
*102 _067_
*103 _068_
*104 _069_
*105 _070_
*106 _071_
*107 _072_
*108 _073_
*109 _074_
*110 _075_
*111 _076_
*112 _077_
*113 _078_
*114 _079_
*115 _080_
*116 _081_
*117 _082_
*118 _083_
*119 _084_
*120 _085_
*121 _086_
*122 _087_
*123 _088_
*124 _089_
*125 _090_
*126 _091_
*127 _092_
*128 _093_
*129 _094_
*130 _095_
*131 _096_
*132 _097_
*133 _098_
*134 _099_
*135 _100_
*136 _101_
*137 _102_
*138 _103_
*139 _104_
*140 _105_
*141 _106_
*142 _107_
*143 _108_
*144 _109_
*145 _110_
*146 _111_
*147 _112_
*148 _113_
*149 _114_
*150 _115_
*151 _116_
*152 _117_
*153 _118_
*154 _119_
*155 _120_
*156 _121_
*157 _122_
*158 _123_
*159 _124_
*160 _125_
*161 _126_
*162 _127_
*163 _128_
*164 _129_
*165 _130_
*166 _131_
*167 _132_
*168 _133_
*169 _134_
*170 _135_
*171 _136_
*172 _137_
*173 _138_
*174 _139_
*175 _140_
*176 _141_
*177 _142_
*178 _143_
*179 _144_
*180 _145_
*181 _146_
*182 _147_
*183 _148_
*184 _149_
*185 _150_
*186 _151_
*187 _152_
*188 _153_
*189 _154_
*190 _155_
*191 _156_
*192 _157_
*193 _158_
*194 _159_
*195 _160_
*196 _161_
*197 _162_
*198 _163_
*199 _164_
*200 _165_
*201 _166_
*202 _167_
*203 _168_
*204 _169_
*205 _170_
*206 _171_
*207 _172_
*208 _173_
*209 _174_
*210 _175_
*211 _176_
*212 _177_
*213 _178_
*214 _179_
*215 _180_
*216 _181_
*217 _182_
*218 _183_
*219 _184_
*220 _185_
*221 _186_
*222 _187_
*223 _188_
*224 _189_
*225 _190_
*226 _191_
*227 _192_
*228 _193_
*229 _194_
*230 _195_
*231 _196_
*232 _197_
*233 _198_
*234 _199_
*235 _200_
*236 _201_
*237 _202_
*238 _203_
*239 _204_
*240 _205_
*241 _206_
*242 _207_
*243 _208_
*244 _209_
*245 _210_
*246 _211_
*247 _212_
*248 _213_
*249 _214_
*250 _215_
*251 _216_
*252 _217_
*253 _218_
*254 _219_
*255 _220_
*256 _221_
*257 _222_
*258 _223_
*259 _224_
*260 _225_
*261 _226_
*262 _227_
*263 _228_
*264 _229_
*265 _230_
*266 _231_
*267 _232_
*268 _233_
*269 _234_
*270 _235_
*271 _236_
*272 _237_
*273 _238_
*274 _239_
*275 _240_
*276 _241_
*277 _242_
*278 _243_
*279 _244_
*280 _245_
*281 _246_
*282 _247_
*283 _248_
*284 _249_
*285 _250_
*286 _251_
*287 _252_
*288 _253_
*289 _254_
*290 _255_
*291 _256_
*292 _257_
*293 _258_
*294 _259_
*295 _260_
*296 _261_
*297 _262_
*298 _263_
*299 _264_
*300 _265_
*301 _266_
*302 _267_
*303 _268_
*304 _269_
*305 net1
*306 net10
*307 net11
*308 net119
*309 net12
*310 net120
*311 net121
*312 net122
*313 net123
*314 net124
*315 net125
*316 net126
*317 net127
*318 net128
*319 net129
*320 net13
*321 net130
*322 net131
*323 net132
*324 net133
*325 net14
*326 net15
*327 net16
*328 net17
*329 net18
*330 net19
*331 net2
*332 net20
*333 net21
*334 net22
*335 net23
*336 net24
*337 net25
*338 net26
*339 net27
*340 net28
*341 net29
*342 net3
*343 net30
*344 net31
*345 net32
*346 net33
*347 net34
*348 net35
*349 net36
*350 net37
*351 net38
*352 net39
*353 net4
*354 net40
*355 net41
*356 net42
*357 net43
*358 net44
*359 net45
*360 net46
*361 net47
*362 net48
*363 net49
*364 net5
*365 net50
*366 net51
*367 net52
*368 net53
*369 net54
*370 net55
*371 net56
*372 net57
*373 net58
*374 net59
*375 net6
*376 net60
*377 net61
*378 net62
*379 net7
*380 net71
*381 net72
*382 net73
*383 net74
*384 net75
*385 net8
*386 net9
*387 FILLER_0_101
*388 FILLER_0_113
*389 FILLER_0_119
*390 FILLER_0_139
*391 FILLER_0_141
*392 FILLER_0_147
*393 FILLER_0_15
*394 FILLER_0_154
*395 FILLER_0_178
*396 FILLER_0_184
*397 FILLER_0_188
*398 FILLER_0_197
*399 FILLER_0_209
*400 FILLER_0_221
*401 FILLER_0_225
*402 FILLER_0_237
*403 FILLER_0_249
*404 FILLER_0_253
*405 FILLER_0_265
*406 FILLER_0_27
*407 FILLER_0_273
*408 FILLER_0_279
*409 FILLER_0_281
*410 FILLER_0_29
*411 FILLER_0_293
*412 FILLER_0_3
*413 FILLER_0_305
*414 FILLER_0_309
*415 FILLER_0_321
*416 FILLER_0_333
*417 FILLER_0_337
*418 FILLER_0_349
*419 FILLER_0_361
*420 FILLER_0_365
*421 FILLER_0_377
*422 FILLER_0_389
*423 FILLER_0_393
*424 FILLER_0_405
*425 FILLER_0_41
*426 FILLER_0_53
*427 FILLER_0_57
*428 FILLER_0_69
*429 FILLER_0_81
*430 FILLER_0_85
*431 FILLER_0_97
*432 FILLER_10_109
*433 FILLER_10_123
*434 FILLER_10_135
*435 FILLER_10_139
*436 FILLER_10_146
*437 FILLER_10_15
*438 FILLER_10_158
*439 FILLER_10_170
*440 FILLER_10_182
*441 FILLER_10_194
*442 FILLER_10_197
*443 FILLER_10_209
*444 FILLER_10_221
*445 FILLER_10_235
*446 FILLER_10_247
*447 FILLER_10_251
*448 FILLER_10_253
*449 FILLER_10_262
*450 FILLER_10_27
*451 FILLER_10_274
*452 FILLER_10_286
*453 FILLER_10_29
*454 FILLER_10_298
*455 FILLER_10_3
*456 FILLER_10_306
*457 FILLER_10_309
*458 FILLER_10_321
*459 FILLER_10_333
*460 FILLER_10_345
*461 FILLER_10_357
*462 FILLER_10_363
*463 FILLER_10_365
*464 FILLER_10_377
*465 FILLER_10_389
*466 FILLER_10_401
*467 FILLER_10_41
*468 FILLER_10_53
*469 FILLER_10_65
*470 FILLER_10_77
*471 FILLER_10_83
*472 FILLER_10_85
*473 FILLER_10_97
*474 FILLER_11_105
*475 FILLER_11_111
*476 FILLER_11_145
*477 FILLER_11_15
*478 FILLER_11_157
*479 FILLER_11_165
*480 FILLER_11_169
*481 FILLER_11_186
*482 FILLER_11_198
*483 FILLER_11_210
*484 FILLER_11_218
*485 FILLER_11_241
*486 FILLER_11_249
*487 FILLER_11_27
*488 FILLER_11_274
*489 FILLER_11_281
*490 FILLER_11_293
*491 FILLER_11_3
*492 FILLER_11_305
*493 FILLER_11_317
*494 FILLER_11_329
*495 FILLER_11_335
*496 FILLER_11_337
*497 FILLER_11_349
*498 FILLER_11_361
*499 FILLER_11_373
*500 FILLER_11_385
*501 FILLER_11_39
*502 FILLER_11_391
*503 FILLER_11_393
*504 FILLER_11_405
*505 FILLER_11_51
*506 FILLER_11_55
*507 FILLER_11_57
*508 FILLER_11_69
*509 FILLER_11_81
*510 FILLER_11_93
*511 FILLER_12_109
*512 FILLER_12_113
*513 FILLER_12_121
*514 FILLER_12_137
*515 FILLER_12_141
*516 FILLER_12_15
*517 FILLER_12_153
*518 FILLER_12_179
*519 FILLER_12_191
*520 FILLER_12_195
*521 FILLER_12_197
*522 FILLER_12_209
*523 FILLER_12_221
*524 FILLER_12_236
*525 FILLER_12_248
*526 FILLER_12_253
*527 FILLER_12_259
*528 FILLER_12_265
*529 FILLER_12_27
*530 FILLER_12_272
*531 FILLER_12_277
*532 FILLER_12_289
*533 FILLER_12_29
*534 FILLER_12_3
*535 FILLER_12_301
*536 FILLER_12_307
*537 FILLER_12_309
*538 FILLER_12_321
*539 FILLER_12_333
*540 FILLER_12_345
*541 FILLER_12_357
*542 FILLER_12_363
*543 FILLER_12_365
*544 FILLER_12_377
*545 FILLER_12_389
*546 FILLER_12_401
*547 FILLER_12_41
*548 FILLER_12_53
*549 FILLER_12_65
*550 FILLER_12_77
*551 FILLER_12_83
*552 FILLER_12_85
*553 FILLER_12_97
*554 FILLER_13_105
*555 FILLER_13_111
*556 FILLER_13_113
*557 FILLER_13_118
*558 FILLER_13_126
*559 FILLER_13_138
*560 FILLER_13_15
*561 FILLER_13_150
*562 FILLER_13_162
*563 FILLER_13_182
*564 FILLER_13_193
*565 FILLER_13_205
*566 FILLER_13_217
*567 FILLER_13_223
*568 FILLER_13_225
*569 FILLER_13_237
*570 FILLER_13_249
*571 FILLER_13_261
*572 FILLER_13_27
*573 FILLER_13_273
*574 FILLER_13_279
*575 FILLER_13_281
*576 FILLER_13_293
*577 FILLER_13_299
*578 FILLER_13_3
*579 FILLER_13_313
*580 FILLER_13_325
*581 FILLER_13_333
*582 FILLER_13_337
*583 FILLER_13_349
*584 FILLER_13_361
*585 FILLER_13_373
*586 FILLER_13_385
*587 FILLER_13_39
*588 FILLER_13_391
*589 FILLER_13_393
*590 FILLER_13_405
*591 FILLER_13_51
*592 FILLER_13_55
*593 FILLER_13_57
*594 FILLER_13_69
*595 FILLER_13_81
*596 FILLER_13_93
*597 FILLER_14_109
*598 FILLER_14_121
*599 FILLER_14_133
*600 FILLER_14_139
*601 FILLER_14_141
*602 FILLER_14_15
*603 FILLER_14_153
*604 FILLER_14_161
*605 FILLER_14_168
*606 FILLER_14_180
*607 FILLER_14_190
*608 FILLER_14_210
*609 FILLER_14_222
*610 FILLER_14_234
*611 FILLER_14_246
*612 FILLER_14_253
*613 FILLER_14_265
*614 FILLER_14_27
*615 FILLER_14_277
*616 FILLER_14_289
*617 FILLER_14_29
*618 FILLER_14_3
*619 FILLER_14_303
*620 FILLER_14_307
*621 FILLER_14_309
*622 FILLER_14_321
*623 FILLER_14_333
*624 FILLER_14_345
*625 FILLER_14_357
*626 FILLER_14_363
*627 FILLER_14_365
*628 FILLER_14_377
*629 FILLER_14_389
*630 FILLER_14_401
*631 FILLER_14_41
*632 FILLER_14_53
*633 FILLER_14_65
*634 FILLER_14_77
*635 FILLER_14_83
*636 FILLER_14_85
*637 FILLER_14_97
*638 FILLER_15_105
*639 FILLER_15_111
*640 FILLER_15_113
*641 FILLER_15_125
*642 FILLER_15_137
*643 FILLER_15_149
*644 FILLER_15_15
*645 FILLER_15_161
*646 FILLER_15_167
*647 FILLER_15_169
*648 FILLER_15_181
*649 FILLER_15_193
*650 FILLER_15_205
*651 FILLER_15_217
*652 FILLER_15_223
*653 FILLER_15_225
*654 FILLER_15_237
*655 FILLER_15_249
*656 FILLER_15_261
*657 FILLER_15_27
*658 FILLER_15_273
*659 FILLER_15_279
*660 FILLER_15_288
*661 FILLER_15_3
*662 FILLER_15_300
*663 FILLER_15_312
*664 FILLER_15_320
*665 FILLER_15_332
*666 FILLER_15_337
*667 FILLER_15_349
*668 FILLER_15_361
*669 FILLER_15_373
*670 FILLER_15_385
*671 FILLER_15_39
*672 FILLER_15_391
*673 FILLER_15_393
*674 FILLER_15_401
*675 FILLER_15_51
*676 FILLER_15_55
*677 FILLER_15_57
*678 FILLER_15_69
*679 FILLER_15_81
*680 FILLER_15_93
*681 FILLER_16_109
*682 FILLER_16_121
*683 FILLER_16_133
*684 FILLER_16_139
*685 FILLER_16_141
*686 FILLER_16_15
*687 FILLER_16_153
*688 FILLER_16_161
*689 FILLER_16_173
*690 FILLER_16_185
*691 FILLER_16_193
*692 FILLER_16_197
*693 FILLER_16_209
*694 FILLER_16_221
*695 FILLER_16_233
*696 FILLER_16_245
*697 FILLER_16_251
*698 FILLER_16_253
*699 FILLER_16_261
*700 FILLER_16_269
*701 FILLER_16_27
*702 FILLER_16_281
*703 FILLER_16_29
*704 FILLER_16_293
*705 FILLER_16_3
*706 FILLER_16_305
*707 FILLER_16_309
*708 FILLER_16_321
*709 FILLER_16_333
*710 FILLER_16_345
*711 FILLER_16_357
*712 FILLER_16_363
*713 FILLER_16_365
*714 FILLER_16_377
*715 FILLER_16_389
*716 FILLER_16_41
*717 FILLER_16_53
*718 FILLER_16_65
*719 FILLER_16_77
*720 FILLER_16_83
*721 FILLER_16_85
*722 FILLER_16_97
*723 FILLER_17_105
*724 FILLER_17_111
*725 FILLER_17_113
*726 FILLER_17_119
*727 FILLER_17_131
*728 FILLER_17_143
*729 FILLER_17_15
*730 FILLER_17_155
*731 FILLER_17_182
*732 FILLER_17_194
*733 FILLER_17_206
*734 FILLER_17_218
*735 FILLER_17_225
*736 FILLER_17_231
*737 FILLER_17_243
*738 FILLER_17_255
*739 FILLER_17_263
*740 FILLER_17_269
*741 FILLER_17_27
*742 FILLER_17_279
*743 FILLER_17_281
*744 FILLER_17_293
*745 FILLER_17_3
*746 FILLER_17_305
*747 FILLER_17_317
*748 FILLER_17_329
*749 FILLER_17_335
*750 FILLER_17_337
*751 FILLER_17_349
*752 FILLER_17_361
*753 FILLER_17_373
*754 FILLER_17_385
*755 FILLER_17_39
*756 FILLER_17_391
*757 FILLER_17_393
*758 FILLER_17_405
*759 FILLER_17_51
*760 FILLER_17_55
*761 FILLER_17_57
*762 FILLER_17_69
*763 FILLER_17_81
*764 FILLER_17_93
*765 FILLER_18_109
*766 FILLER_18_117
*767 FILLER_18_132
*768 FILLER_18_141
*769 FILLER_18_15
*770 FILLER_18_153
*771 FILLER_18_173
*772 FILLER_18_185
*773 FILLER_18_193
*774 FILLER_18_197
*775 FILLER_18_209
*776 FILLER_18_221
*777 FILLER_18_230
*778 FILLER_18_239
*779 FILLER_18_251
*780 FILLER_18_253
*781 FILLER_18_265
*782 FILLER_18_27
*783 FILLER_18_277
*784 FILLER_18_289
*785 FILLER_18_29
*786 FILLER_18_3
*787 FILLER_18_301
*788 FILLER_18_307
*789 FILLER_18_309
*790 FILLER_18_321
*791 FILLER_18_333
*792 FILLER_18_345
*793 FILLER_18_357
*794 FILLER_18_363
*795 FILLER_18_365
*796 FILLER_18_377
*797 FILLER_18_389
*798 FILLER_18_401
*799 FILLER_18_41
*800 FILLER_18_53
*801 FILLER_18_65
*802 FILLER_18_77
*803 FILLER_18_83
*804 FILLER_18_85
*805 FILLER_18_97
*806 FILLER_19_105
*807 FILLER_19_120
*808 FILLER_19_130
*809 FILLER_19_142
*810 FILLER_19_149
*811 FILLER_19_15
*812 FILLER_19_169
*813 FILLER_19_197
*814 FILLER_19_209
*815 FILLER_19_225
*816 FILLER_19_243
*817 FILLER_19_252
*818 FILLER_19_264
*819 FILLER_19_27
*820 FILLER_19_276
*821 FILLER_19_281
*822 FILLER_19_293
*823 FILLER_19_3
*824 FILLER_19_305
*825 FILLER_19_317
*826 FILLER_19_329
*827 FILLER_19_335
*828 FILLER_19_337
*829 FILLER_19_349
*830 FILLER_19_361
*831 FILLER_19_373
*832 FILLER_19_385
*833 FILLER_19_39
*834 FILLER_19_391
*835 FILLER_19_393
*836 FILLER_19_405
*837 FILLER_19_51
*838 FILLER_19_55
*839 FILLER_19_57
*840 FILLER_19_69
*841 FILLER_19_81
*842 FILLER_19_93
*843 FILLER_1_105
*844 FILLER_1_111
*845 FILLER_1_113
*846 FILLER_1_125
*847 FILLER_1_137
*848 FILLER_1_149
*849 FILLER_1_15
*850 FILLER_1_161
*851 FILLER_1_167
*852 FILLER_1_169
*853 FILLER_1_181
*854 FILLER_1_193
*855 FILLER_1_205
*856 FILLER_1_217
*857 FILLER_1_223
*858 FILLER_1_225
*859 FILLER_1_237
*860 FILLER_1_249
*861 FILLER_1_261
*862 FILLER_1_27
*863 FILLER_1_273
*864 FILLER_1_279
*865 FILLER_1_281
*866 FILLER_1_293
*867 FILLER_1_3
*868 FILLER_1_305
*869 FILLER_1_317
*870 FILLER_1_329
*871 FILLER_1_335
*872 FILLER_1_337
*873 FILLER_1_349
*874 FILLER_1_361
*875 FILLER_1_373
*876 FILLER_1_385
*877 FILLER_1_39
*878 FILLER_1_391
*879 FILLER_1_393
*880 FILLER_1_405
*881 FILLER_1_51
*882 FILLER_1_55
*883 FILLER_1_57
*884 FILLER_1_69
*885 FILLER_1_81
*886 FILLER_1_93
*887 FILLER_20_109
*888 FILLER_20_133
*889 FILLER_20_139
*890 FILLER_20_141
*891 FILLER_20_15
*892 FILLER_20_153
*893 FILLER_20_165
*894 FILLER_20_177
*895 FILLER_20_189
*896 FILLER_20_195
*897 FILLER_20_197
*898 FILLER_20_209
*899 FILLER_20_243
*900 FILLER_20_251
*901 FILLER_20_253
*902 FILLER_20_265
*903 FILLER_20_27
*904 FILLER_20_277
*905 FILLER_20_289
*906 FILLER_20_29
*907 FILLER_20_3
*908 FILLER_20_301
*909 FILLER_20_307
*910 FILLER_20_309
*911 FILLER_20_321
*912 FILLER_20_333
*913 FILLER_20_345
*914 FILLER_20_357
*915 FILLER_20_363
*916 FILLER_20_365
*917 FILLER_20_377
*918 FILLER_20_389
*919 FILLER_20_401
*920 FILLER_20_41
*921 FILLER_20_53
*922 FILLER_20_65
*923 FILLER_20_77
*924 FILLER_20_83
*925 FILLER_20_85
*926 FILLER_20_97
*927 FILLER_21_105
*928 FILLER_21_111
*929 FILLER_21_113
*930 FILLER_21_125
*931 FILLER_21_137
*932 FILLER_21_15
*933 FILLER_21_152
*934 FILLER_21_164
*935 FILLER_21_169
*936 FILLER_21_181
*937 FILLER_21_185
*938 FILLER_21_193
*939 FILLER_21_205
*940 FILLER_21_216
*941 FILLER_21_246
*942 FILLER_21_258
*943 FILLER_21_27
*944 FILLER_21_270
*945 FILLER_21_3
*946 FILLER_21_313
*947 FILLER_21_325
*948 FILLER_21_333
*949 FILLER_21_337
*950 FILLER_21_349
*951 FILLER_21_361
*952 FILLER_21_373
*953 FILLER_21_385
*954 FILLER_21_39
*955 FILLER_21_391
*956 FILLER_21_393
*957 FILLER_21_405
*958 FILLER_21_51
*959 FILLER_21_55
*960 FILLER_21_57
*961 FILLER_21_69
*962 FILLER_21_81
*963 FILLER_21_93
*964 FILLER_22_107
*965 FILLER_22_115
*966 FILLER_22_119
*967 FILLER_22_131
*968 FILLER_22_139
*969 FILLER_22_141
*970 FILLER_22_147
*971 FILLER_22_163
*972 FILLER_22_175
*973 FILLER_22_187
*974 FILLER_22_19
*975 FILLER_22_195
*976 FILLER_22_197
*977 FILLER_22_209
*978 FILLER_22_240
*979 FILLER_22_253
*980 FILLER_22_265
*981 FILLER_22_27
*982 FILLER_22_273
*983 FILLER_22_281
*984 FILLER_22_29
*985 FILLER_22_293
*986 FILLER_22_301
*987 FILLER_22_309
*988 FILLER_22_323
*989 FILLER_22_335
*990 FILLER_22_347
*991 FILLER_22_359
*992 FILLER_22_363
*993 FILLER_22_365
*994 FILLER_22_377
*995 FILLER_22_389
*996 FILLER_22_401
*997 FILLER_22_41
*998 FILLER_22_53
*999 FILLER_22_65
*1000 FILLER_22_7
*1001 FILLER_22_77
*1002 FILLER_22_83
*1003 FILLER_22_85
*1004 FILLER_22_97
*1005 FILLER_23_105
*1006 FILLER_23_111
*1007 FILLER_23_113
*1008 FILLER_23_125
*1009 FILLER_23_137
*1010 FILLER_23_143
*1011 FILLER_23_148
*1012 FILLER_23_15
*1013 FILLER_23_160
*1014 FILLER_23_169
*1015 FILLER_23_181
*1016 FILLER_23_193
*1017 FILLER_23_205
*1018 FILLER_23_217
*1019 FILLER_23_223
*1020 FILLER_23_225
*1021 FILLER_23_237
*1022 FILLER_23_249
*1023 FILLER_23_261
*1024 FILLER_23_27
*1025 FILLER_23_273
*1026 FILLER_23_279
*1027 FILLER_23_281
*1028 FILLER_23_293
*1029 FILLER_23_3
*1030 FILLER_23_301
*1031 FILLER_23_308
*1032 FILLER_23_320
*1033 FILLER_23_332
*1034 FILLER_23_337
*1035 FILLER_23_349
*1036 FILLER_23_361
*1037 FILLER_23_373
*1038 FILLER_23_385
*1039 FILLER_23_39
*1040 FILLER_23_391
*1041 FILLER_23_393
*1042 FILLER_23_405
*1043 FILLER_23_51
*1044 FILLER_23_55
*1045 FILLER_23_57
*1046 FILLER_23_69
*1047 FILLER_23_81
*1048 FILLER_23_93
*1049 FILLER_24_109
*1050 FILLER_24_121
*1051 FILLER_24_133
*1052 FILLER_24_139
*1053 FILLER_24_141
*1054 FILLER_24_153
*1055 FILLER_24_165
*1056 FILLER_24_177
*1057 FILLER_24_189
*1058 FILLER_24_19
*1059 FILLER_24_195
*1060 FILLER_24_197
*1061 FILLER_24_209
*1062 FILLER_24_221
*1063 FILLER_24_225
*1064 FILLER_24_229
*1065 FILLER_24_241
*1066 FILLER_24_249
*1067 FILLER_24_253
*1068 FILLER_24_265
*1069 FILLER_24_27
*1070 FILLER_24_277
*1071 FILLER_24_289
*1072 FILLER_24_29
*1073 FILLER_24_301
*1074 FILLER_24_307
*1075 FILLER_24_309
*1076 FILLER_24_321
*1077 FILLER_24_333
*1078 FILLER_24_345
*1079 FILLER_24_357
*1080 FILLER_24_363
*1081 FILLER_24_365
*1082 FILLER_24_377
*1083 FILLER_24_389
*1084 FILLER_24_397
*1085 FILLER_24_41
*1086 FILLER_24_53
*1087 FILLER_24_65
*1088 FILLER_24_7
*1089 FILLER_24_77
*1090 FILLER_24_83
*1091 FILLER_24_85
*1092 FILLER_24_97
*1093 FILLER_25_105
*1094 FILLER_25_111
*1095 FILLER_25_124
*1096 FILLER_25_136
*1097 FILLER_25_148
*1098 FILLER_25_15
*1099 FILLER_25_160
*1100 FILLER_25_169
*1101 FILLER_25_181
*1102 FILLER_25_193
*1103 FILLER_25_205
*1104 FILLER_25_217
*1105 FILLER_25_223
*1106 FILLER_25_225
*1107 FILLER_25_237
*1108 FILLER_25_249
*1109 FILLER_25_261
*1110 FILLER_25_27
*1111 FILLER_25_273
*1112 FILLER_25_279
*1113 FILLER_25_281
*1114 FILLER_25_293
*1115 FILLER_25_3
*1116 FILLER_25_305
*1117 FILLER_25_317
*1118 FILLER_25_329
*1119 FILLER_25_335
*1120 FILLER_25_337
*1121 FILLER_25_349
*1122 FILLER_25_361
*1123 FILLER_25_373
*1124 FILLER_25_385
*1125 FILLER_25_39
*1126 FILLER_25_391
*1127 FILLER_25_393
*1128 FILLER_25_405
*1129 FILLER_25_51
*1130 FILLER_25_55
*1131 FILLER_25_57
*1132 FILLER_25_69
*1133 FILLER_25_81
*1134 FILLER_25_93
*1135 FILLER_26_109
*1136 FILLER_26_136
*1137 FILLER_26_141
*1138 FILLER_26_149
*1139 FILLER_26_15
*1140 FILLER_26_155
*1141 FILLER_26_167
*1142 FILLER_26_179
*1143 FILLER_26_191
*1144 FILLER_26_195
*1145 FILLER_26_197
*1146 FILLER_26_209
*1147 FILLER_26_221
*1148 FILLER_26_227
*1149 FILLER_26_245
*1150 FILLER_26_251
*1151 FILLER_26_253
*1152 FILLER_26_265
*1153 FILLER_26_27
*1154 FILLER_26_277
*1155 FILLER_26_289
*1156 FILLER_26_29
*1157 FILLER_26_3
*1158 FILLER_26_300
*1159 FILLER_26_309
*1160 FILLER_26_321
*1161 FILLER_26_333
*1162 FILLER_26_345
*1163 FILLER_26_357
*1164 FILLER_26_363
*1165 FILLER_26_365
*1166 FILLER_26_377
*1167 FILLER_26_389
*1168 FILLER_26_401
*1169 FILLER_26_41
*1170 FILLER_26_53
*1171 FILLER_26_65
*1172 FILLER_26_77
*1173 FILLER_26_83
*1174 FILLER_26_85
*1175 FILLER_26_97
*1176 FILLER_27_105
*1177 FILLER_27_111
*1178 FILLER_27_113
*1179 FILLER_27_129
*1180 FILLER_27_141
*1181 FILLER_27_149
*1182 FILLER_27_15
*1183 FILLER_27_156
*1184 FILLER_27_162
*1185 FILLER_27_169
*1186 FILLER_27_177
*1187 FILLER_27_202
*1188 FILLER_27_214
*1189 FILLER_27_234
*1190 FILLER_27_242
*1191 FILLER_27_253
*1192 FILLER_27_268
*1193 FILLER_27_27
*1194 FILLER_27_288
*1195 FILLER_27_3
*1196 FILLER_27_300
*1197 FILLER_27_312
*1198 FILLER_27_324
*1199 FILLER_27_337
*1200 FILLER_27_349
*1201 FILLER_27_361
*1202 FILLER_27_373
*1203 FILLER_27_385
*1204 FILLER_27_39
*1205 FILLER_27_391
*1206 FILLER_27_393
*1207 FILLER_27_405
*1208 FILLER_27_51
*1209 FILLER_27_55
*1210 FILLER_27_57
*1211 FILLER_27_69
*1212 FILLER_27_81
*1213 FILLER_27_93
*1214 FILLER_28_109
*1215 FILLER_28_115
*1216 FILLER_28_123
*1217 FILLER_28_137
*1218 FILLER_28_141
*1219 FILLER_28_15
*1220 FILLER_28_153
*1221 FILLER_28_165
*1222 FILLER_28_177
*1223 FILLER_28_194
*1224 FILLER_28_210
*1225 FILLER_28_222
*1226 FILLER_28_234
*1227 FILLER_28_246
*1228 FILLER_28_250
*1229 FILLER_28_253
*1230 FILLER_28_261
*1231 FILLER_28_27
*1232 FILLER_28_270
*1233 FILLER_28_280
*1234 FILLER_28_29
*1235 FILLER_28_292
*1236 FILLER_28_3
*1237 FILLER_28_304
*1238 FILLER_28_309
*1239 FILLER_28_320
*1240 FILLER_28_332
*1241 FILLER_28_344
*1242 FILLER_28_356
*1243 FILLER_28_365
*1244 FILLER_28_377
*1245 FILLER_28_389
*1246 FILLER_28_401
*1247 FILLER_28_41
*1248 FILLER_28_53
*1249 FILLER_28_65
*1250 FILLER_28_77
*1251 FILLER_28_83
*1252 FILLER_28_85
*1253 FILLER_28_97
*1254 FILLER_29_105
*1255 FILLER_29_111
*1256 FILLER_29_113
*1257 FILLER_29_132
*1258 FILLER_29_144
*1259 FILLER_29_15
*1260 FILLER_29_156
*1261 FILLER_29_169
*1262 FILLER_29_181
*1263 FILLER_29_208
*1264 FILLER_29_220
*1265 FILLER_29_225
*1266 FILLER_29_237
*1267 FILLER_29_249
*1268 FILLER_29_261
*1269 FILLER_29_27
*1270 FILLER_29_273
*1271 FILLER_29_279
*1272 FILLER_29_281
*1273 FILLER_29_293
*1274 FILLER_29_3
*1275 FILLER_29_305
*1276 FILLER_29_311
*1277 FILLER_29_318
*1278 FILLER_29_335
*1279 FILLER_29_337
*1280 FILLER_29_349
*1281 FILLER_29_361
*1282 FILLER_29_373
*1283 FILLER_29_385
*1284 FILLER_29_39
*1285 FILLER_29_391
*1286 FILLER_29_393
*1287 FILLER_29_405
*1288 FILLER_29_51
*1289 FILLER_29_55
*1290 FILLER_29_57
*1291 FILLER_29_69
*1292 FILLER_29_81
*1293 FILLER_29_93
*1294 FILLER_2_109
*1295 FILLER_2_132
*1296 FILLER_2_141
*1297 FILLER_2_149
*1298 FILLER_2_15
*1299 FILLER_2_155
*1300 FILLER_2_164
*1301 FILLER_2_169
*1302 FILLER_2_181
*1303 FILLER_2_193
*1304 FILLER_2_197
*1305 FILLER_2_209
*1306 FILLER_2_221
*1307 FILLER_2_233
*1308 FILLER_2_245
*1309 FILLER_2_251
*1310 FILLER_2_253
*1311 FILLER_2_265
*1312 FILLER_2_27
*1313 FILLER_2_277
*1314 FILLER_2_289
*1315 FILLER_2_29
*1316 FILLER_2_3
*1317 FILLER_2_301
*1318 FILLER_2_307
*1319 FILLER_2_309
*1320 FILLER_2_321
*1321 FILLER_2_333
*1322 FILLER_2_345
*1323 FILLER_2_357
*1324 FILLER_2_363
*1325 FILLER_2_365
*1326 FILLER_2_377
*1327 FILLER_2_389
*1328 FILLER_2_401
*1329 FILLER_2_41
*1330 FILLER_2_53
*1331 FILLER_2_65
*1332 FILLER_2_77
*1333 FILLER_2_83
*1334 FILLER_2_85
*1335 FILLER_2_97
*1336 FILLER_30_109
*1337 FILLER_30_121
*1338 FILLER_30_126
*1339 FILLER_30_138
*1340 FILLER_30_141
*1341 FILLER_30_15
*1342 FILLER_30_153
*1343 FILLER_30_165
*1344 FILLER_30_177
*1345 FILLER_30_185
*1346 FILLER_30_193
*1347 FILLER_30_207
*1348 FILLER_30_211
*1349 FILLER_30_219
*1350 FILLER_30_231
*1351 FILLER_30_243
*1352 FILLER_30_251
*1353 FILLER_30_253
*1354 FILLER_30_265
*1355 FILLER_30_27
*1356 FILLER_30_277
*1357 FILLER_30_29
*1358 FILLER_30_3
*1359 FILLER_30_305
*1360 FILLER_30_309
*1361 FILLER_30_324
*1362 FILLER_30_336
*1363 FILLER_30_348
*1364 FILLER_30_360
*1365 FILLER_30_365
*1366 FILLER_30_377
*1367 FILLER_30_389
*1368 FILLER_30_397
*1369 FILLER_30_41
*1370 FILLER_30_53
*1371 FILLER_30_65
*1372 FILLER_30_77
*1373 FILLER_30_83
*1374 FILLER_30_85
*1375 FILLER_30_97
*1376 FILLER_31_105
*1377 FILLER_31_111
*1378 FILLER_31_113
*1379 FILLER_31_125
*1380 FILLER_31_137
*1381 FILLER_31_149
*1382 FILLER_31_15
*1383 FILLER_31_161
*1384 FILLER_31_167
*1385 FILLER_31_169
*1386 FILLER_31_181
*1387 FILLER_31_187
*1388 FILLER_31_191
*1389 FILLER_31_203
*1390 FILLER_31_215
*1391 FILLER_31_223
*1392 FILLER_31_225
*1393 FILLER_31_237
*1394 FILLER_31_249
*1395 FILLER_31_261
*1396 FILLER_31_27
*1397 FILLER_31_273
*1398 FILLER_31_279
*1399 FILLER_31_281
*1400 FILLER_31_293
*1401 FILLER_31_3
*1402 FILLER_31_305
*1403 FILLER_31_318
*1404 FILLER_31_330
*1405 FILLER_31_337
*1406 FILLER_31_349
*1407 FILLER_31_361
*1408 FILLER_31_373
*1409 FILLER_31_385
*1410 FILLER_31_39
*1411 FILLER_31_391
*1412 FILLER_31_393
*1413 FILLER_31_397
*1414 FILLER_31_51
*1415 FILLER_31_55
*1416 FILLER_31_57
*1417 FILLER_31_69
*1418 FILLER_31_81
*1419 FILLER_31_93
*1420 FILLER_32_109
*1421 FILLER_32_121
*1422 FILLER_32_133
*1423 FILLER_32_139
*1424 FILLER_32_141
*1425 FILLER_32_15
*1426 FILLER_32_153
*1427 FILLER_32_165
*1428 FILLER_32_177
*1429 FILLER_32_189
*1430 FILLER_32_195
*1431 FILLER_32_197
*1432 FILLER_32_209
*1433 FILLER_32_221
*1434 FILLER_32_233
*1435 FILLER_32_245
*1436 FILLER_32_251
*1437 FILLER_32_253
*1438 FILLER_32_265
*1439 FILLER_32_27
*1440 FILLER_32_277
*1441 FILLER_32_289
*1442 FILLER_32_29
*1443 FILLER_32_3
*1444 FILLER_32_301
*1445 FILLER_32_307
*1446 FILLER_32_309
*1447 FILLER_32_321
*1448 FILLER_32_333
*1449 FILLER_32_345
*1450 FILLER_32_357
*1451 FILLER_32_363
*1452 FILLER_32_365
*1453 FILLER_32_377
*1454 FILLER_32_389
*1455 FILLER_32_401
*1456 FILLER_32_41
*1457 FILLER_32_53
*1458 FILLER_32_65
*1459 FILLER_32_77
*1460 FILLER_32_83
*1461 FILLER_32_85
*1462 FILLER_32_97
*1463 FILLER_33_105
*1464 FILLER_33_111
*1465 FILLER_33_113
*1466 FILLER_33_125
*1467 FILLER_33_137
*1468 FILLER_33_149
*1469 FILLER_33_15
*1470 FILLER_33_161
*1471 FILLER_33_167
*1472 FILLER_33_169
*1473 FILLER_33_181
*1474 FILLER_33_193
*1475 FILLER_33_205
*1476 FILLER_33_217
*1477 FILLER_33_223
*1478 FILLER_33_225
*1479 FILLER_33_233
*1480 FILLER_33_240
*1481 FILLER_33_266
*1482 FILLER_33_27
*1483 FILLER_33_273
*1484 FILLER_33_279
*1485 FILLER_33_281
*1486 FILLER_33_287
*1487 FILLER_33_295
*1488 FILLER_33_3
*1489 FILLER_33_307
*1490 FILLER_33_319
*1491 FILLER_33_331
*1492 FILLER_33_335
*1493 FILLER_33_337
*1494 FILLER_33_349
*1495 FILLER_33_361
*1496 FILLER_33_373
*1497 FILLER_33_385
*1498 FILLER_33_39
*1499 FILLER_33_391
*1500 FILLER_33_393
*1501 FILLER_33_405
*1502 FILLER_33_51
*1503 FILLER_33_55
*1504 FILLER_33_57
*1505 FILLER_33_69
*1506 FILLER_33_81
*1507 FILLER_33_93
*1508 FILLER_34_109
*1509 FILLER_34_115
*1510 FILLER_34_123
*1511 FILLER_34_131
*1512 FILLER_34_139
*1513 FILLER_34_144
*1514 FILLER_34_15
*1515 FILLER_34_170
*1516 FILLER_34_182
*1517 FILLER_34_186
*1518 FILLER_34_194
*1519 FILLER_34_200
*1520 FILLER_34_208
*1521 FILLER_34_223
*1522 FILLER_34_237
*1523 FILLER_34_249
*1524 FILLER_34_253
*1525 FILLER_34_27
*1526 FILLER_34_275
*1527 FILLER_34_287
*1528 FILLER_34_29
*1529 FILLER_34_299
*1530 FILLER_34_3
*1531 FILLER_34_307
*1532 FILLER_34_309
*1533 FILLER_34_321
*1534 FILLER_34_333
*1535 FILLER_34_345
*1536 FILLER_34_357
*1537 FILLER_34_363
*1538 FILLER_34_365
*1539 FILLER_34_377
*1540 FILLER_34_389
*1541 FILLER_34_401
*1542 FILLER_34_41
*1543 FILLER_34_53
*1544 FILLER_34_65
*1545 FILLER_34_77
*1546 FILLER_34_83
*1547 FILLER_34_85
*1548 FILLER_34_97
*1549 FILLER_35_105
*1550 FILLER_35_111
*1551 FILLER_35_113
*1552 FILLER_35_124
*1553 FILLER_35_131
*1554 FILLER_35_143
*1555 FILLER_35_15
*1556 FILLER_35_155
*1557 FILLER_35_167
*1558 FILLER_35_169
*1559 FILLER_35_181
*1560 FILLER_35_193
*1561 FILLER_35_199
*1562 FILLER_35_213
*1563 FILLER_35_221
*1564 FILLER_35_230
*1565 FILLER_35_242
*1566 FILLER_35_254
*1567 FILLER_35_266
*1568 FILLER_35_27
*1569 FILLER_35_278
*1570 FILLER_35_281
*1571 FILLER_35_293
*1572 FILLER_35_3
*1573 FILLER_35_305
*1574 FILLER_35_319
*1575 FILLER_35_331
*1576 FILLER_35_335
*1577 FILLER_35_337
*1578 FILLER_35_349
*1579 FILLER_35_361
*1580 FILLER_35_373
*1581 FILLER_35_385
*1582 FILLER_35_39
*1583 FILLER_35_391
*1584 FILLER_35_393
*1585 FILLER_35_405
*1586 FILLER_35_51
*1587 FILLER_35_55
*1588 FILLER_35_57
*1589 FILLER_35_69
*1590 FILLER_35_81
*1591 FILLER_35_93
*1592 FILLER_36_109
*1593 FILLER_36_120
*1594 FILLER_36_136
*1595 FILLER_36_141
*1596 FILLER_36_15
*1597 FILLER_36_153
*1598 FILLER_36_165
*1599 FILLER_36_177
*1600 FILLER_36_189
*1601 FILLER_36_195
*1602 FILLER_36_206
*1603 FILLER_36_218
*1604 FILLER_36_230
*1605 FILLER_36_242
*1606 FILLER_36_250
*1607 FILLER_36_253
*1608 FILLER_36_261
*1609 FILLER_36_27
*1610 FILLER_36_273
*1611 FILLER_36_29
*1612 FILLER_36_299
*1613 FILLER_36_3
*1614 FILLER_36_307
*1615 FILLER_36_315
*1616 FILLER_36_327
*1617 FILLER_36_339
*1618 FILLER_36_351
*1619 FILLER_36_363
*1620 FILLER_36_365
*1621 FILLER_36_377
*1622 FILLER_36_389
*1623 FILLER_36_401
*1624 FILLER_36_41
*1625 FILLER_36_53
*1626 FILLER_36_65
*1627 FILLER_36_77
*1628 FILLER_36_83
*1629 FILLER_36_85
*1630 FILLER_36_97
*1631 FILLER_37_105
*1632 FILLER_37_111
*1633 FILLER_37_113
*1634 FILLER_37_12
*1635 FILLER_37_125
*1636 FILLER_37_137
*1637 FILLER_37_149
*1638 FILLER_37_162
*1639 FILLER_37_169
*1640 FILLER_37_181
*1641 FILLER_37_193
*1642 FILLER_37_205
*1643 FILLER_37_217
*1644 FILLER_37_223
*1645 FILLER_37_225
*1646 FILLER_37_237
*1647 FILLER_37_24
*1648 FILLER_37_249
*1649 FILLER_37_261
*1650 FILLER_37_273
*1651 FILLER_37_279
*1652 FILLER_37_294
*1653 FILLER_37_306
*1654 FILLER_37_318
*1655 FILLER_37_327
*1656 FILLER_37_335
*1657 FILLER_37_350
*1658 FILLER_37_36
*1659 FILLER_37_362
*1660 FILLER_37_374
*1661 FILLER_37_386
*1662 FILLER_37_393
*1663 FILLER_37_405
*1664 FILLER_37_48
*1665 FILLER_37_57
*1666 FILLER_37_69
*1667 FILLER_37_81
*1668 FILLER_37_93
*1669 FILLER_38_109
*1670 FILLER_38_121
*1671 FILLER_38_136
*1672 FILLER_38_146
*1673 FILLER_38_15
*1674 FILLER_38_158
*1675 FILLER_38_171
*1676 FILLER_38_183
*1677 FILLER_38_195
*1678 FILLER_38_197
*1679 FILLER_38_209
*1680 FILLER_38_221
*1681 FILLER_38_229
*1682 FILLER_38_246
*1683 FILLER_38_253
*1684 FILLER_38_265
*1685 FILLER_38_27
*1686 FILLER_38_273
*1687 FILLER_38_277
*1688 FILLER_38_289
*1689 FILLER_38_29
*1690 FILLER_38_3
*1691 FILLER_38_301
*1692 FILLER_38_307
*1693 FILLER_38_323
*1694 FILLER_38_335
*1695 FILLER_38_347
*1696 FILLER_38_359
*1697 FILLER_38_363
*1698 FILLER_38_365
*1699 FILLER_38_377
*1700 FILLER_38_389
*1701 FILLER_38_401
*1702 FILLER_38_41
*1703 FILLER_38_53
*1704 FILLER_38_65
*1705 FILLER_38_77
*1706 FILLER_38_83
*1707 FILLER_38_85
*1708 FILLER_38_97
*1709 FILLER_39_105
*1710 FILLER_39_111
*1711 FILLER_39_113
*1712 FILLER_39_125
*1713 FILLER_39_138
*1714 FILLER_39_15
*1715 FILLER_39_150
*1716 FILLER_39_162
*1717 FILLER_39_169
*1718 FILLER_39_181