*SPEF "ieee 1481-1999"
*DESIGN "SarsaNada_e10_1"
*DATE "14:07:56 Tuesday September 16, 2025"
*VENDOR "The OpenROAD Project"
*PROGRAM "OpenROAD"
*VERSION "edf00dff99f6c40d67a30c0e22a8191c5d2ed9d6"
*DESIGN_FLOW "NAME_SCOPE LOCAL" "PIN_CAP NONE"
*DIVIDER /
*DELIMITER :
*BUS_DELIMITER []
*T_UNIT 1 NS
*C_UNIT 1 PF
*R_UNIT 1 OHM
*L_UNIT 1 HENRY

*NAME_MAP
*1 A[0]
*2 A[1]
*3 B[0]
*4 B[1]
*5 P[0]
*6 P[1]
*7 P[2]
*8 P[3]
*11 _0_
*12 _1_
*13 net1
*14 net2
*15 net3
*16 net4
*17 net5
*18 net6
*19 net7
*20 net8
*21 FILLER_0_15
*22 FILLER_0_27
*23 FILLER_0_29
*24 FILLER_0_3
*25 FILLER_0_37
*26 FILLER_0_41
*27 FILLER_0_49
*28 FILLER_0_55
*29 FILLER_0_57
*30 FILLER_0_69
*31 FILLER_1_15
*32 FILLER_1_27
*33 FILLER_1_3
*34 FILLER_1_39
*35 FILLER_1_51
*36 FILLER_1_55
*37 FILLER_1_57
*38 FILLER_1_69
*39 FILLER_2_15
*40 FILLER_2_27
*41 FILLER_2_29
*42 FILLER_2_3
*43 FILLER_2_33
*44 FILLER_2_41
*45 FILLER_2_53
*46 FILLER_2_65
*47 FILLER_2_77
*48 FILLER_3_15
*49 FILLER_3_27
*50 FILLER_3_3
*51 FILLER_3_39
*52 FILLER_3_51
*53 FILLER_3_55
*54 FILLER_3_57
*55 FILLER_3_69
*56 FILLER_4_15
*57 FILLER_4_27
*58 FILLER_4_29
*59 FILLER_4_3
*60 FILLER_4_41
*61 FILLER_4_53
*62 FILLER_4_65
*63 FILLER_4_77
*64 FILLER_5_15
*65 FILLER_5_27
*66 FILLER_5_3
*67 FILLER_5_39
*68 FILLER_5_51
*69 FILLER_5_55
*70 FILLER_5_57
*71 FILLER_5_69
*72 FILLER_6_15
*73 FILLER_6_27
*74 FILLER_6_29
*75 FILLER_6_3
*76 FILLER_6_41
*77 FILLER_6_53
*78 FILLER_6_65
*79 FILLER_6_77
*80 FILLER_7_15
*81 FILLER_7_27
*82 FILLER_7_3
*83 FILLER_7_33
*84 FILLER_7_51
*85 FILLER_7_55
*86 FILLER_7_57
*87 FILLER_7_69
*88 FILLER_8_15
*89 FILLER_8_27
*90 FILLER_8_29
*91 FILLER_8_3
*92 FILLER_8_37
*93 FILLER_8_54
*94 FILLER_8_66
*95 FILLER_8_78
*96 FILLER_9_15
*97 FILLER_9_23
*98 FILLER_9_27
*99 FILLER_9_29
*100 FILLER_9_3
*101 FILLER_9_34
*102 FILLER_9_42
*103 FILLER_9_49
*104 FILLER_9_57
*105 FILLER_9_69
*106 PHY_EDGE_ROW_0_Left_10
*107 PHY_EDGE_ROW_0_Right_0
*108 PHY_EDGE_ROW_1_Left_11
*109 PHY_EDGE_ROW_1_Right_1
*110 PHY_EDGE_ROW_2_Left_12
*111 PHY_EDGE_ROW_2_Right_2
*112 PHY_EDGE_ROW_3_Left_13
*113 PHY_EDGE_ROW_3_Right_3
*114 PHY_EDGE_ROW_4_Left_14
*115 PHY_EDGE_ROW_4_Right_4
*116 PHY_EDGE_ROW_5_Left_15
*117 PHY_EDGE_ROW_5_Right_5
*118 PHY_EDGE_ROW_6_Left_16
*119 PHY_EDGE_ROW_6_Right_6
*120 PHY_EDGE_ROW_7_Left_17
*121 PHY_EDGE_ROW_7_Right_7
*122 PHY_EDGE_ROW_8_Left_18
*123 PHY_EDGE_ROW_8_Right_8
*124 PHY_EDGE_ROW_9_Left_19
*125 PHY_EDGE_ROW_9_Right_9
*126 TAP_TAPCELL_ROW_0_20
*127 TAP_TAPCELL_ROW_0_21
*128 TAP_TAPCELL_ROW_1_22
*129 TAP_TAPCELL_ROW_2_23
*130 TAP_TAPCELL_ROW_3_24
*131 TAP_TAPCELL_ROW_4_25
*132 TAP_TAPCELL_ROW_5_26
*133 TAP_TAPCELL_ROW_6_27
*134 TAP_TAPCELL_ROW_7_28
*135 TAP_TAPCELL_ROW_8_29
*136 TAP_TAPCELL_ROW_9_30
*137 TAP_TAPCELL_ROW_9_31
*138 _2_
*139 _3_
*140 _4_
*141 _5_
*142 _6_
*143 _7_
*144 input1
*145 input2
*146 input3
*147 input4
*148 output5
*149 output6
*150 output7
*151 output8

*PORTS
A[0] I
A[1] I
B[0] I
B[1] I
P[0] O
P[1] O
P[2] O
P[3] O

*D_NET *1 0.000848239
*CONN
*P A[0] I
*I *144:A I *D sky130_fd_sc_hd__buf_1
*CAP
1 A[0] 0.000421466
2 *144:A 0.000421466
3 *144:A P[0] 0
4 *144:A *13:10 5.30637e-06
*RES
1 A[0] *144:A 21.8357 
*END

*D_NET *2 0.000930923
*CONN
*P A[1] I
*I *145:A I *D sky130_fd_sc_hd__buf_1
*CAP
1 A[1] 0.000465461
2 *145:A 0.000465461
3 *145:A *146:A 0
*RES
1 A[1] *145:A 23.05 
*END

*D_NET *3 0.000930923
*CONN
*P B[0] I
*I *146:A I *D sky130_fd_sc_hd__clkbuf_1
*CAP
1 B[0] 0.000465462
2 *146:A 0.000465462
3 *146:A P[3] 0
4 *145:A *146:A 0
*RES
1 B[0] *146:A 23.05 
*END

*D_NET *4 0.000930923
*CONN
*P B[1] I
*I *147:A I *D sky130_fd_sc_hd__dlymetal6s2s_1
*CAP
1 B[1] 0.000465461
2 *147:A 0.000465461
3 *147:A P[2] 0
4 *147:A *150:A 0
*RES
1 B[1] *147:A 23.05 
*END

*D_NET *5 0.000932591
*CONN
*P P[0] O
*I *148:X O *D sky130_fd_sc_hd__buf_2
*CAP
1 P[0] 0.000466295
2 *148:X 0.000466295
3 *144:A P[0] 0
*RES
1 *148:X P[0] 22.3 
*END

*D_NET *6 0.000951893
*CONN
*P P[1] O
*I *149:X O *D sky130_fd_sc_hd__buf_2
*CAP
1 P[1] 0.000475946
2 *149:X 0.000475946
3 P[1] P[2] 0
4 P[1] P[3] 0
*RES
1 *149:X P[1] 23.2643 
*END

*D_NET *7 0.000911701
*CONN
*P P[2] O
*I *150:X O *D sky130_fd_sc_hd__buf_2
*CAP
1 P[2] 0.00045585
2 *150:X 0.00045585
3 P[1] P[2] 0
4 *147:A P[2] 0
*RES
1 *150:X P[2] 22.8536 
*END

*D_NET *8 0.000911701
*CONN
*P P[3] O
*I *151:X O *D sky130_fd_sc_hd__buf_2
*CAP
1 P[3] 0.00045585
2 *151:X 0.00045585
3 P[1] P[3] 0
4 *146:A P[3] 0
*RES
1 *151:X P[3] 22.8536 
*END

*D_NET *11 0.00109816
*CONN
*I *141:A1 I *D sky130_fd_sc_hd__o21ba_1
*I *139:Y O *D sky130_fd_sc_hd__nor2_1
*CAP
1 *141:A1 0.000327214
2 *139:Y 0.000327214
3 *141:A1 *141:A2 5.49544e-05
4 *141:A1 *142:B 1.07719e-05
5 *141:A1 *142:C 0.000135028
6 *141:A1 *16:14 0.000100823
7 *141:A1 *20:12 0.000142152
*RES
1 *139:Y *141:A1 33.6 
*END

*D_NET *12 0.000375002
*CONN
*I *141:A2 I *D sky130_fd_sc_hd__o21ba_1
*I *140:X O *D sky130_fd_sc_hd__a22o_1
*CAP
1 *141:A2 9.6301e-05
2 *140:X 9.6301e-05
3 *141:A2 *14:12 0.000127446
4 *141:A1 *141:A2 5.49544e-05
*RES
1 *140:X *141:A2 29.7786 
*END

*D_NET *13 0.00364204
*CONN
*I *138:D I *D sky130_fd_sc_hd__and4_1
*I *140:B2 I *D sky130_fd_sc_hd__a22o_1
*I *143:B I *D sky130_fd_sc_hd__xor2_1
*I *144:X O *D sky130_fd_sc_hd__buf_1
*CAP
1 *138:D 9.82892e-05
2 *140:B2 0.000127675
3 *143:B 2.55335e-05
4 *144:X 0.000331006
5 *13:23 0.000664149
6 *13:10 0.000794725
7 *138:D *140:A2 5.71472e-05
8 *138:D *140:B1 1.98839e-05
9 *138:D *14:21 0.000173707
10 *138:D *14:30 4.89442e-05
11 *138:D *16:20 6.66635e-05
12 *138:D *16:22 0.000114553
13 *140:B2 *138:A 1.46148e-05
14 *140:B2 *140:B1 9.64831e-05
15 *143:B *143:A 5.49489e-05
16 *13:10 *143:A 3.17148e-05
17 *13:10 *148:A 0
18 *13:23 *140:B1 1.30583e-05
19 *13:23 *143:A 0.000903636
20 *144:A *13:10 5.30637e-06
*RES
1 *144:X *13:10 19.1214 
2 *13:10 *143:B 14.3357 
3 *13:10 *13:23 16.1607 
4 *13:23 *140:B2 11.8 
5 *13:23 *138:D 13.1571 
*END

*D_NET *14 0.00330012
*CONN
*I *139:A I *D sky130_fd_sc_hd__nor2_1
*I *142:C I *D sky130_fd_sc_hd__and3b_1
*I *138:B I *D sky130_fd_sc_hd__and4_1
*I *140:A2 I *D sky130_fd_sc_hd__a22o_1
*I *145:X O *D sky130_fd_sc_hd__buf_1
*CAP
1 *139:A 0.000119836
2 *142:C 0.000235909
3 *138:B 0
4 *140:A2 8.95943e-06
5 *145:X 0.00047604
6 *14:30 0.000445126
7 *14:21 0.000131987
8 *14:12 0.000527605
9 *139:A *16:20 4.06366e-05
10 *140:A2 *138:A 5.52238e-05
11 *142:C *142:B 9.66073e-06
12 *142:C *16:14 1.18064e-05
13 *142:C *20:10 7.83587e-05
14 *14:12 *140:B1 3.4846e-06
15 *14:12 *151:A 0
16 *14:12 *15:16 0.000497956
17 *14:21 *138:A 9.83442e-05
18 *14:30 *16:20 1.69175e-05
19 *138:D *140:A2 5.71472e-05
20 *138:D *14:21 0.000173707
21 *138:D *14:30 4.89442e-05
22 *141:A1 *142:C 0.000135028
23 *141:A2 *14:12 0.000127446
*RES
1 *145:X *14:12 28.1393 
2 *14:12 *140:A2 9.83571 
3 *14:12 *14:21 1.76786 
4 *14:21 *138:B 9.3 
5 *14:21 *14:30 1.78571 
6 *14:30 *142:C 21.8179 
7 *14:30 *139:A 11.4964 
*END

*D_NET *15 0.00151698
*CONN
*I *138:A I *D sky130_fd_sc_hd__and4_1
*I *140:A1 I *D sky130_fd_sc_hd__a22o_1
*I *146:X O *D sky130_fd_sc_hd__clkbuf_1
*CAP
1 *138:A 7.51072e-05
2 *140:A1 0
3 *146:X 0.000350312
4 *15:16 0.000425419
5 *140:A2 *138:A 5.52238e-05
6 *140:B2 *138:A 1.46148e-05
7 *14:12 *15:16 0.000497956
8 *14:21 *138:A 9.83442e-05
*RES
1 *146:X *15:16 24.9071 
2 *15:16 *140:A1 9.3 
3 *15:16 *138:A 11.0679 
*END

*D_NET *16 0.00518612
*CONN
*I *142:B I *D sky130_fd_sc_hd__and3b_1
*I *139:B I *D sky130_fd_sc_hd__nor2_1
*I *138:C I *D sky130_fd_sc_hd__and4_1
*I *143:A I *D sky130_fd_sc_hd__xor2_1
*I *140:B1 I *D sky130_fd_sc_hd__a22o_1
*I *147:X O *D sky130_fd_sc_hd__dlymetal6s2s_1
*CAP
1 *142:B 0.000116098
2 *139:B 0
3 *138:C 8.80417e-05
4 *143:A 0.000510045
5 *140:B1 0.000182998
6 *147:X 0.000444187
7 *16:22 0.000843017
8 *16:20 0.000371236
9 *16:14 0.000273269
10 *16:10 0.000700333
11 *143:A *148:A 0
12 *16:10 *149:A 3.6178e-05
13 *16:10 *150:A 0
14 *16:14 *149:A 2.38651e-06
15 *16:14 *20:10 0.000123288
16 *138:D *140:B1 1.98839e-05
17 *138:D *16:20 6.66635e-05
18 *138:D *16:22 0.000114553
19 *139:A *16:20 4.06366e-05
20 *140:B2 *140:B1 9.64831e-05
21 *141:A1 *142:B 1.07719e-05
22 *141:A1 *16:14 0.000100823
23 *142:C *142:B 9.66073e-06
24 *142:C *16:14 1.18064e-05
25 *143:B *143:A 5.49489e-05
26 *13:10 *143:A 3.17148e-05
27 *13:23 *140:B1 1.30583e-05
28 *13:23 *143:A 0.000903636
29 *14:12 *140:B1 3.4846e-06
30 *14:30 *16:20 1.69175e-05
*RES
1 *147:X *16:10 21.3179 
2 *16:10 *16:14 7.66071 
3 *16:14 *16:20 2.92857 
4 *16:20 *16:22 2.17857 
5 *16:22 *140:B1 20.6929 
6 *16:22 *143:A 31.3179 
7 *16:20 *138:C 19.3357 
8 *16:14 *139:B 9.3 
9 *16:10 *142:B 15.1571 
*END

*D_NET *17 0.00086982
*CONN
*I *148:A I *D sky130_fd_sc_hd__buf_2
*I *143:X O *D sky130_fd_sc_hd__xor2_1
*CAP
1 *148:A 0.00043491
2 *143:X 0.00043491
3 *143:A *148:A 0
4 *13:10 *148:A 0
*RES
1 *143:X *148:A 35.0643 
*END

*D_NET *18 0.000416563
*CONN
*I *149:A I *D sky130_fd_sc_hd__buf_2
*I *141:X O *D sky130_fd_sc_hd__o21ba_1
*CAP
1 *149:A 0.000103136
2 *141:X 0.000103136
3 *149:A *151:A 0.000149959
4 *149:A *20:12 2.1768e-05
5 *16:10 *149:A 3.6178e-05
6 *16:14 *149:A 2.38651e-06
*RES
1 *141:X *149:A 30.0821 
*END

*D_NET *19 0.00041035
*CONN
*I *150:A I *D sky130_fd_sc_hd__buf_2
*I *142:X O *D sky130_fd_sc_hd__and3b_1
*CAP
1 *150:A 0.000205175
2 *142:X 0.000205175
3 *147:A *150:A 0
4 *16:10 *150:A 0
*RES
1 *142:X *150:A 30.4929 
*END

*D_NET *20 0.00115002
*CONN
*I *142:A_N I *D sky130_fd_sc_hd__and3b_1
*I *141:B1_N I *D sky130_fd_sc_hd__o21ba_1
*I *151:A I *D sky130_fd_sc_hd__buf_2
*I *138:X O *D sky130_fd_sc_hd__and4_1
*CAP
1 *142:A_N 0
2 *141:B1_N 0
3 *151:A 0.000214311
4 *138:X 5.68043e-05
5 *20:12 0.000260442
6 *20:10 0.000102935
7 *141:A1 *20:12 0.000142152
8 *142:C *20:10 7.83587e-05
9 *149:A *151:A 0.000149959
10 *149:A *20:12 2.1768e-05
11 *14:12 *151:A 0
12 *16:14 *20:10 0.000123288
*RES
1 *138:X *20:10 19.9429 
2 *20:10 *20:12 1.35714 
3 *20:12 *151:A 22.5143 
4 *20:12 *141:B1_N 9.3 
5 *20:10 *142:A_N 9.3 
*END
