*SPEF "ieee 1481-1999"
*DESIGN "SarsaNada_e6"
*DATE "14:09:42 Tuesday September 16, 2025"
*VENDOR "The OpenROAD Project"
*PROGRAM "OpenROAD"
*VERSION "edf00dff99f6c40d67a30c0e22a8191c5d2ed9d6"
*DESIGN_FLOW "NAME_SCOPE LOCAL" "PIN_CAP NONE"
*DIVIDER /
*DELIMITER :
*BUS_DELIMITER []
*T_UNIT 1 NS
*C_UNIT 1 PF
*R_UNIT 1 OHM
*L_UNIT 1 HENRY

*NAME_MAP
*1 A[0]
*2 A[1]
*3 B[0]
*4 B[1]
*5 P[0]
*6 P[1]
*7 P[2]
*8 P[3]
*11 _0_
*12 _1_
*13 net1
*14 net2
*15 net3
*16 net4
*17 net5
*18 net6
*19 net7
*20 net8
*21 pp1
*22 FILLER_0_15
*23 FILLER_0_27
*24 FILLER_0_29
*25 FILLER_0_3
*26 FILLER_0_41
*27 FILLER_0_53
*28 FILLER_0_57
*29 FILLER_0_69
*30 FILLER_1_15
*31 FILLER_1_27
*32 FILLER_1_3
*33 FILLER_1_39
*34 FILLER_1_51
*35 FILLER_1_55
*36 FILLER_1_57
*37 FILLER_1_69
*38 FILLER_2_19
*39 FILLER_2_27
*40 FILLER_2_29
*41 FILLER_2_41
*42 FILLER_2_53
*43 FILLER_2_65
*44 FILLER_2_7
*45 FILLER_2_77
*46 FILLER_3_11
*47 FILLER_3_16
*48 FILLER_3_28
*49 FILLER_3_3
*50 FILLER_3_40
*51 FILLER_3_52
*52 FILLER_3_57
*53 FILLER_3_69
*54 FILLER_4_18
*55 FILLER_4_26
*56 FILLER_4_29
*57 FILLER_4_41
*58 FILLER_4_53
*59 FILLER_4_65
*60 FILLER_4_7
*61 FILLER_4_70
*62 FILLER_5_10
*63 FILLER_5_28
*64 FILLER_5_40
*65 FILLER_5_52
*66 FILLER_5_57
*67 FILLER_5_6
*68 FILLER_5_69
*69 FILLER_6_19
*70 FILLER_6_27
*71 FILLER_6_29
*72 FILLER_6_41
*73 FILLER_6_53
*74 FILLER_6_65
*75 FILLER_6_7
*76 FILLER_6_77
*77 FILLER_7_18
*78 FILLER_7_30
*79 FILLER_7_42
*80 FILLER_7_54
*81 FILLER_7_57
*82 FILLER_7_6
*83 FILLER_7_69
*84 FILLER_8_15
*85 FILLER_8_27
*86 FILLER_8_29
*87 FILLER_8_3
*88 FILLER_8_41
*89 FILLER_8_53
*90 FILLER_8_65
*91 FILLER_8_77
*92 FILLER_9_15
*93 FILLER_9_27
*94 FILLER_9_29
*95 FILLER_9_3
*96 FILLER_9_41
*97 FILLER_9_53
*98 FILLER_9_57
*99 FILLER_9_69
*100 PHY_EDGE_ROW_0_Left_10
*101 PHY_EDGE_ROW_0_Right_0
*102 PHY_EDGE_ROW_1_Left_11
*103 PHY_EDGE_ROW_1_Right_1
*104 PHY_EDGE_ROW_2_Left_12
*105 PHY_EDGE_ROW_2_Right_2
*106 PHY_EDGE_ROW_3_Left_13
*107 PHY_EDGE_ROW_3_Right_3
*108 PHY_EDGE_ROW_4_Left_14
*109 PHY_EDGE_ROW_4_Right_4
*110 PHY_EDGE_ROW_5_Left_15
*111 PHY_EDGE_ROW_5_Right_5
*112 PHY_EDGE_ROW_6_Left_16
*113 PHY_EDGE_ROW_6_Right_6
*114 PHY_EDGE_ROW_7_Left_17
*115 PHY_EDGE_ROW_7_Right_7
*116 PHY_EDGE_ROW_8_Left_18
*117 PHY_EDGE_ROW_8_Right_8
*118 PHY_EDGE_ROW_9_Left_19
*119 PHY_EDGE_ROW_9_Right_9
*120 TAP_TAPCELL_ROW_0_20
*121 TAP_TAPCELL_ROW_0_21
*122 TAP_TAPCELL_ROW_1_22
*123 TAP_TAPCELL_ROW_2_23
*124 TAP_TAPCELL_ROW_3_24
*125 TAP_TAPCELL_ROW_4_25
*126 TAP_TAPCELL_ROW_5_26
*127 TAP_TAPCELL_ROW_6_27
*128 TAP_TAPCELL_ROW_7_28
*129 TAP_TAPCELL_ROW_8_29
*130 TAP_TAPCELL_ROW_9_30
*131 TAP_TAPCELL_ROW_9_31
*132 _2_
*133 _3_
*134 _4_
*135 _5_
*136 _6_
*137 _7_
*138 _8_
*139 input1
*140 input2
*141 input3
*142 input4
*143 output5
*144 output6
*145 output7
*146 output8

*PORTS
A[0] I
A[1] I
B[0] I
B[1] I
P[0] O
P[1] O
P[2] O
P[3] O

*D_NET *1 0.000623243
*CONN
*P A[0] I
*I *139:A I *D sky130_fd_sc_hd__clkbuf_1
*CAP
1 A[0] 0.00028255
2 *139:A 0.00028255
3 *139:A P[1] 2.85068e-05
4 *139:A P[3] 2.96366e-05
*RES
1 A[0] *139:A 7.5993 
*END

*D_NET *2 0.000599388
*CONN
*P A[1] I
*I *140:A I *D sky130_fd_sc_hd__buf_1
*CAP
1 A[1] 0.000258254
2 *140:A 0.000258254
3 *140:A P[0] 8.28789e-05
*RES
1 A[1] *140:A 6.37677 
*END

*D_NET *3 0.000469751
*CONN
*P B[0] I
*I *141:A I *D sky130_fd_sc_hd__buf_1
*CAP
1 B[0] 0.000186352
2 *141:A 0.000186352
3 *141:A P[0] 8.53361e-05
4 *141:A *15:12 1.17114e-05
*RES
1 B[0] *141:A 5.35677 
*END

*D_NET *4 0.000532809
*CONN
*P B[1] I
*I *142:A I *D sky130_fd_sc_hd__buf_1
*CAP
1 B[1] 0.000255159
2 *142:A 0.000255159
3 *142:A P[1] 2.24901e-05
*RES
1 B[1] *142:A 6.8343 
*END

*D_NET *5 0.000537496
*CONN
*P P[0] O
*I *143:X O *D sky130_fd_sc_hd__buf_2
*CAP
1 P[0] 0.000184641
2 *143:X 0.000184641
3 P[0] *143:A 0
4 *140:A P[0] 8.28789e-05
5 *141:A P[0] 8.53361e-05
*RES
1 *143:X P[0] 5.41503 
*END

*D_NET *6 0.000500391
*CONN
*P P[1] O
*I *144:X O *D sky130_fd_sc_hd__buf_2
*CAP
1 P[1] 0.000215264
2 *144:X 0.000215264
3 P[1] *16:12 1.88656e-05
4 *139:A P[1] 2.85068e-05
5 *142:A P[1] 2.24901e-05
*RES
1 *144:X P[1] 4.90503 
*END

*D_NET *7 0.000590485
*CONN
*P P[2] O
*I *145:X O *D sky130_fd_sc_hd__buf_2
*CAP
1 P[2] 0.000280424
2 *145:X 0.000280424
3 P[2] P[3] 2.96366e-05
*RES
1 *145:X P[2] 7.1793 
*END

*D_NET *8 0.000712316
*CONN
*P P[3] O
*I *146:X O *D sky130_fd_sc_hd__buf_2
*CAP
1 P[3] 0.000326521
2 *146:X 0.000326521
3 P[3] *145:A 0
4 P[2] P[3] 2.96366e-05
5 *139:A P[3] 2.96366e-05
*RES
1 *146:X P[3] 7.6893 
*END

*D_NET *11 0.00179643
*CONN
*I *136:A I *D sky130_fd_sc_hd__and2_1
*I *137:C I *D sky130_fd_sc_hd__and3_1
*I *134:A I *D sky130_fd_sc_hd__inv_2
*I *133:Y O *D sky130_fd_sc_hd__nand4_1
*CAP
1 *136:A 0.00016493
2 *137:C 4.98018e-05
3 *134:A 0.000105405
4 *133:Y 2.24737e-05
5 *11:10 0.00027199
6 *11:6 0.000304187
7 *134:A *145:A 0
8 *134:A *146:A 4.05358e-05
9 *136:A *133:A 0.0001249
10 *136:A *133:B 0.000150653
11 *136:A *15:25 0.000298129
12 *11:6 *133:A 4.66108e-05
13 *11:6 *133:B 8.40213e-05
14 *11:6 *135:B2 1.47256e-05
15 *11:10 *137:A 0
16 *11:10 *137:B 9.30717e-05
17 *11:10 *146:A 2.4997e-05
*RES
1 *133:Y *11:6 2.395 
2 *11:6 *11:10 4.4 
3 *11:10 *134:A 5.43 
4 *11:10 *137:C 4.11 
5 *11:6 *136:A 5.86 
*END

*D_NET *12 0.000374902
*CONN
*I *136:B I *D sky130_fd_sc_hd__and2_1
*I *135:X O *D sky130_fd_sc_hd__a22o_1
*CAP
1 *136:B 5.41979e-05
2 *135:X 5.41979e-05
3 *136:B *137:B 0
4 *136:B *144:A 9.50342e-06
5 *136:B *14:25 0.0001249
6 *136:B *14:29 5.53249e-06
7 *136:B *15:25 0.00012657
*RES
1 *135:X *136:B 8.955 
*END

*D_NET *13 0.000818018
*CONN
*I *135:B2 I *D sky130_fd_sc_hd__a22o_1
*I *133:D I *D sky130_fd_sc_hd__nand4_1
*I *139:X O *D sky130_fd_sc_hd__clkbuf_1
*CAP
1 *135:B2 7.17082e-05
2 *133:D 0
3 *139:X 0.000124316
4 *13:8 0.000196024
5 *135:B2 *133:A 2.75229e-05
6 *135:B2 *133:B 3.55091e-05
7 *135:B2 *135:A1 4.00541e-06
8 *135:B2 *135:B1 4.28316e-05
9 *135:B2 *14:25 0
10 *135:B2 *16:12 4.99619e-05
11 *135:B2 *16:19 0.000113237
12 *13:8 *16:12 0.000138175
13 *11:6 *135:B2 1.47256e-05
*RES
1 *139:X *13:8 4.39 
2 *13:8 *133:D 1.6 
3 *13:8 *135:B2 4.15 
*END

*D_NET *14 0.00548269
*CONN
*I *135:A2 I *D sky130_fd_sc_hd__a22o_1
*I *133:B I *D sky130_fd_sc_hd__nand4_1
*I *137:A I *D sky130_fd_sc_hd__and3_1
*I *132:A_N I *D sky130_fd_sc_hd__and2b_1
*I *140:X O *D sky130_fd_sc_hd__buf_1
*CAP
1 *135:A2 0
2 *133:B 0.000234583
3 *137:A 0.000202456
4 *132:A_N 0
5 *140:X 0.000486583
6 *14:29 0.000500069
7 *14:25 0.000871289
8 *14:10 0.00129484
9 *133:B *135:A1 0
10 *14:10 *138:A 0
11 *14:10 *143:A 0
12 *14:25 *135:A1 9.53428e-06
13 *14:25 *135:B1 5.4155e-06
14 *14:25 *143:A 0
15 *14:25 *15:25 0.0014773
16 *14:29 *137:B 0
17 *135:B2 *133:B 3.55091e-05
18 *135:B2 *14:25 0
19 *136:A *133:B 0.000150653
20 *136:B *14:25 0.0001249
21 *136:B *14:29 5.53249e-06
22 *11:6 *133:B 8.40213e-05
23 *11:10 *137:A 0
*RES
1 *140:X *14:10 10.515 
2 *14:10 *132:A_N 3.6 
3 *14:10 *14:25 17.915 
4 *14:25 *14:29 2.87 
5 *14:29 *137:A 6.63 
6 *14:29 *133:B 7.16625 
7 *14:25 *135:A2 1.6 
*END

*D_NET *15 0.00456203
*CONN
*I *135:A1 I *D sky130_fd_sc_hd__a22o_1
*I *133:A I *D sky130_fd_sc_hd__nand4_1
*I *132:B I *D sky130_fd_sc_hd__and2b_1
*I *141:X O *D sky130_fd_sc_hd__buf_1
*CAP
1 *135:A1 1.68577e-05
2 *133:A 4.1628e-05
3 *132:B 0
4 *141:X 0.000354085
5 *15:25 0.00072909
6 *15:12 0.00102469
7 *133:A *135:B1 3.23663e-05
8 *15:12 *138:A 4.82919e-05
9 *15:12 *143:A 0.000188727
10 *133:B *135:A1 0
11 *135:B2 *133:A 2.75229e-05
12 *135:B2 *135:A1 4.00541e-06
13 *136:A *133:A 0.0001249
14 *136:A *15:25 0.000298129
15 *136:B *15:25 0.00012657
16 *141:A *15:12 1.17114e-05
17 *11:6 *133:A 4.66108e-05
18 *14:25 *135:A1 9.53428e-06
19 *14:25 *15:25 0.0014773
*RES
1 *141:X *15:12 11.735 
2 *15:12 *132:B 1.6 
3 *15:12 *15:25 17.4 
4 *15:25 *133:A 3.085 
5 *15:25 *135:A1 1.96 
*END

*D_NET *16 0.00184038
*CONN
*I *135:B1 I *D sky130_fd_sc_hd__a22o_1
*I *137:B I *D sky130_fd_sc_hd__and3_1
*I *133:C I *D sky130_fd_sc_hd__nand4_1
*I *142:X O *D sky130_fd_sc_hd__buf_1
*CAP
1 *135:B1 9.96091e-05
2 *137:B 0.000137734
3 *133:C 0
4 *142:X 0.000355471
5 *16:19 0.000317754
6 *16:12 0.000435882
7 P[1] *16:12 1.88656e-05
8 *133:A *135:B1 3.23663e-05
9 *135:B2 *135:B1 4.28316e-05
10 *135:B2 *16:12 4.99619e-05
11 *135:B2 *16:19 0.000113237
12 *136:B *137:B 0
13 *11:10 *137:B 9.30717e-05
14 *13:8 *16:12 0.000138175
15 *14:25 *135:B1 5.4155e-06
16 *14:29 *137:B 0
*RES
1 *142:X *16:12 11.03 
2 *16:12 *133:C 1.6 
3 *16:12 *16:19 1.14 
4 *16:19 *137:B 7.745 
5 *16:19 *135:B1 3.1 
*END

*D_NET *17 0.000676654
*CONN
*I *143:A I *D sky130_fd_sc_hd__buf_2
*I *138:X O *D sky130_fd_sc_hd__clkbuf_1
*CAP
1 *143:A 0.000224637
2 *138:X 0.000224637
3 *143:A *138:A 3.86529e-05
4 P[0] *143:A 0
5 *14:10 *143:A 0
6 *14:25 *143:A 0
7 *15:12 *143:A 0.000188727
*RES
1 *138:X *143:A 11.7 
*END

*D_NET *18 0.000981772
*CONN
*I *144:A I *D sky130_fd_sc_hd__buf_2
*I *136:X O *D sky130_fd_sc_hd__and2_1
*CAP
1 *144:A 0.000486134
2 *136:X 0.000486134
3 *136:B *144:A 9.50342e-06
*RES
1 *136:X *144:A 14.55 
*END

*D_NET *19 0.000980281
*CONN
*I *145:A I *D sky130_fd_sc_hd__buf_2
*I *137:X O *D sky130_fd_sc_hd__and3_1
*CAP
1 *145:A 0.000407291
2 *137:X 0.000407291
3 *145:A *146:A 0.000165698
4 P[3] *145:A 0
5 *134:A *145:A 0
*RES
1 *137:X *145:A 13.395 
*END

*D_NET *20 0.000629368
*CONN
*I *146:A I *D sky130_fd_sc_hd__buf_2
*I *134:Y O *D sky130_fd_sc_hd__inv_2
*CAP
1 *146:A 0.000199068
2 *134:Y 0.000199068
3 *134:A *146:A 4.05358e-05
4 *145:A *146:A 0.000165698
5 *11:10 *146:A 2.4997e-05
*RES
1 *134:Y *146:A 11.445 
*END

*D_NET *21 0.000337044
*CONN
*I *138:A I *D sky130_fd_sc_hd__clkbuf_1
*I *132:X O *D sky130_fd_sc_hd__and2b_1
*CAP
1 *138:A 0.000125049
2 *132:X 0.000125049
3 *143:A *138:A 3.86529e-05
4 *14:10 *138:A 0
5 *15:12 *138:A 4.82919e-05
*RES
1 *132:X *138:A 9.285 
*END
