*SPEF "ieee 1481-1999"
*DESIGN "mult4_SARSA_RUIDO_e9_SARSANPASOS_VENTAJA_RUIDO_e8_SARSA_RUIDO_e9_SARSA_RUIDO_e9"
*DATE "14:23:49 Tuesday September 16, 2025"
*VENDOR "The OpenROAD Project"
*PROGRAM "OpenROAD"
*VERSION "edf00dff99f6c40d67a30c0e22a8191c5d2ed9d6"
*DESIGN_FLOW "NAME_SCOPE LOCAL" "PIN_CAP NONE"
*DIVIDER /
*DELIMITER :
*BUS_DELIMITER []
*T_UNIT 1 NS
*C_UNIT 1 PF
*R_UNIT 1 OHM
*L_UNIT 1 HENRY

*NAME_MAP
*1 A[0]
*2 A[1]
*3 A[2]
*4 A[3]
*5 B[0]
*6 B[1]
*7 B[2]
*8 B[3]
*9 P[0]
*10 P[1]
*11 P[2]
*12 P[3]
*13 P[4]
*14 P[5]
*15 P[6]
*16 P[7]
*19 _00_
*20 _01_
*21 _02_
*22 _03_
*23 _04_
*24 _05_
*25 _06_
*26 _07_
*27 _08_
*28 _09_
*29 _10_
*30 _11_
*31 _12_
*32 _13_
*33 _14_
*34 _15_
*35 _16_
*36 _17_
*37 _18_
*38 _19_
*39 _20_
*40 _21_
*41 _22_
*42 _23_
*43 mul_ll\.pp1
*44 mul_ll\.pp2
*45 net1
*46 net10
*47 net11
*48 net12
*49 net13
*50 net14
*51 net15
*52 net16
*53 net2
*54 net3
*55 net4
*56 net5
*57 net6
*58 net7
*59 net8
*60 net9
*61 FILLER_0_15
*62 FILLER_0_27
*63 FILLER_0_29
*64 FILLER_0_3
*65 FILLER_0_34
*66 FILLER_0_42
*67 FILLER_0_48
*68 FILLER_0_55
*69 FILLER_0_57
*70 FILLER_0_69
*71 FILLER_1_15
*72 FILLER_1_27
*73 FILLER_1_3
*74 FILLER_1_41
*75 FILLER_1_45
*76 FILLER_1_49
*77 FILLER_1_55
*78 FILLER_1_57
*79 FILLER_1_69
*80 FILLER_2_15
*81 FILLER_2_25
*82 FILLER_2_29
*83 FILLER_2_41
*84 FILLER_2_49
*85 FILLER_2_57
*86 FILLER_2_69
*87 FILLER_2_7
*88 FILLER_3_11
*89 FILLER_3_16
*90 FILLER_3_3
*91 FILLER_3_34
*92 FILLER_3_46
*93 FILLER_3_54
*94 FILLER_3_66
*95 FILLER_3_78
*96 FILLER_4_22
*97 FILLER_4_34
*98 FILLER_4_46
*99 FILLER_4_57
*100 FILLER_4_69
*101 FILLER_4_7
*102 FILLER_4_77
*103 FILLER_5_18
*104 FILLER_5_25
*105 FILLER_5_37
*106 FILLER_5_45
*107 FILLER_5_6
*108 FILLER_5_64
*109 FILLER_5_76
*110 FILLER_6_13
*111 FILLER_6_21
*112 FILLER_6_34
*113 FILLER_6_46
*114 FILLER_6_62
*115 FILLER_6_74
*116 FILLER_7_27
*117 FILLER_7_36
*118 FILLER_7_48
*119 FILLER_7_54
*120 FILLER_7_57
*121 FILLER_7_69
*122 FILLER_7_7
*123 FILLER_8_15
*124 FILLER_8_27
*125 FILLER_8_29
*126 FILLER_8_3
*127 FILLER_8_41
*128 FILLER_8_45
*129 FILLER_8_58
*130 FILLER_8_70
*131 FILLER_8_78
*132 FILLER_9_15
*133 FILLER_9_27
*134 FILLER_9_29
*135 FILLER_9_3
*136 FILLER_9_35
*137 FILLER_9_47
*138 FILLER_9_51
*139 FILLER_9_57
*140 FILLER_9_63
*141 FILLER_9_75
*142 PHY_EDGE_ROW_0_Left_10
*143 PHY_EDGE_ROW_0_Right_0
*144 PHY_EDGE_ROW_1_Left_11
*145 PHY_EDGE_ROW_1_Right_1
*146 PHY_EDGE_ROW_2_Left_12
*147 PHY_EDGE_ROW_2_Right_2
*148 PHY_EDGE_ROW_3_Left_13
*149 PHY_EDGE_ROW_3_Right_3
*150 PHY_EDGE_ROW_4_Left_14
*151 PHY_EDGE_ROW_4_Right_4
*152 PHY_EDGE_ROW_5_Left_15
*153 PHY_EDGE_ROW_5_Right_5
*154 PHY_EDGE_ROW_6_Left_16
*155 PHY_EDGE_ROW_6_Right_6
*156 PHY_EDGE_ROW_7_Left_17
*157 PHY_EDGE_ROW_7_Right_7
*158 PHY_EDGE_ROW_8_Left_18
*159 PHY_EDGE_ROW_8_Right_8
*160 PHY_EDGE_ROW_9_Left_19
*161 PHY_EDGE_ROW_9_Right_9
*162 TAP_TAPCELL_ROW_0_20
*163 TAP_TAPCELL_ROW_0_21
*164 TAP_TAPCELL_ROW_1_22
*165 TAP_TAPCELL_ROW_2_23
*166 TAP_TAPCELL_ROW_3_24
*167 TAP_TAPCELL_ROW_4_25
*168 TAP_TAPCELL_ROW_5_26
*169 TAP_TAPCELL_ROW_6_27
*170 TAP_TAPCELL_ROW_7_28
*171 TAP_TAPCELL_ROW_8_29
*172 TAP_TAPCELL_ROW_9_30
*173 TAP_TAPCELL_ROW_9_31
*174 _24_
*175 _25_
*176 _26_
*177 _27_
*178 _28_
*179 _29_
*180 _30_
*181 _31_
*182 _32_
*183 _33_
*184 _34_
*185 _35_
*186 _36_
*187 _37_
*188 _38_
*189 _39_
*190 _40_
*191 _41_
*192 _42_
*193 _43_
*194 _44_
*195 _45_
*196 _46_
*197 _47_
*198 _48_
*199 _49_
*200 _50_
*201 _51_
*202 _52_
*203 _53_
*204 _54_
*205 _55_
*206 _56_
*207 _57_
*208 input1
*209 input2
*210 input3
*211 input4
*212 input5
*213 input6
*214 input7
*215 input8
*216 output10
*217 output11
*218 output12
*219 output13
*220 output14
*221 output15
*222 output16
*223 output9

*PORTS
A[0] I
A[1] I
A[2] I
A[3] I
B[0] I
B[1] I
B[2] I
B[3] I
P[0] O
P[1] O
P[2] O
P[3] O
P[4] O
P[5] O
P[6] O
P[7] O

*D_NET *1 0.000901682
*CONN
*P A[0] I
*I *208:A I *D sky130_fd_sc_hd__clkbuf_1
*CAP
1 A[0] 0.000450841
2 *208:A 0.000450841
3 *208:A P[0] 0
*RES
1 A[0] *208:A 47.3214 
*END

*D_NET *2 0.000682534
*CONN
*P A[1] I
*I *209:A I *D sky130_fd_sc_hd__buf_1
*CAP
1 A[1] 0.000261838
2 *209:A 0.000261838
3 *209:A P[2] 8.06147e-05
4 *209:A *214:A 7.82427e-05
*RES
1 A[1] *209:A 49.1918 
*END

*D_NET *3 0.00089887
*CONN
*P A[2] I
*I *210:A I *D sky130_fd_sc_hd__buf_1
*CAP
1 A[2] 0.000439695
2 *210:A 0.000439695
3 *210:A *212:A 0
4 *210:A *54:10 1.94812e-05
*RES
1 A[2] *210:A 47.3214 
*END

*D_NET *4 0.000536393
*CONN
*P A[3] I
*I *211:A I *D sky130_fd_sc_hd__buf_1
*CAP
1 A[3] 0.000229075
2 *211:A 0.000229075
3 *211:A *214:A 7.82427e-05
*RES
1 A[3] *211:A 47.7832 
*END

*D_NET *5 0.000868135
*CONN
*P B[0] I
*I *212:A I *D sky130_fd_sc_hd__clkbuf_1
*CAP
1 B[0] 0.000434067
2 *212:A 0.000434067
3 *212:A P[0] 0
4 *212:A *60:8 0
5 *210:A *212:A 0
*RES
1 B[0] *212:A 47.4664 
*END

*D_NET *6 0.00071699
*CONN
*P B[1] I
*I *213:A I *D sky130_fd_sc_hd__buf_1
*CAP
1 B[1] 0.000330094
2 *213:A 0
3 *6:17 0.000330094
4 *6:17 P[1] 2.88889e-05
5 *6:17 *215:A 2.79122e-05
*RES
1 B[1] *6:17 27.8627 
2 *6:17 *213:A 23 
*END

*D_NET *7 0.000662136
*CONN
*P B[2] I
*I *214:A I *D sky130_fd_sc_hd__buf_1
*CAP
1 B[2] 0.000252825
2 *214:A 0.000252825
3 *209:A *214:A 7.82427e-05
4 *211:A *214:A 7.82427e-05
*RES
1 B[2] *214:A 48.8397 
*END

*D_NET *8 0.000568138
*CONN
*P B[3] I
*I *215:A I *D sky130_fd_sc_hd__dlymetal6s2s_1
*CAP
1 B[3] 0.000254489
2 *215:A 0.000254489
3 *215:A P[4] 1.5289e-05
4 *215:A *13:14 1.59585e-05
5 *6:17 *215:A 2.79122e-05
*RES
1 B[3] *215:A 47.7832 
*END

*D_NET *9 0.00100673
*CONN
*P P[0] O
*I *223:X O *D sky130_fd_sc_hd__buf_2
*CAP
1 P[0] 0.000503364
2 *223:X 0.000503364
3 *208:A P[0] 0
4 *212:A P[0] 0
*RES
1 *223:X P[0] 47.57 
*END

*D_NET *10 0.00081785
*CONN
*P P[1] O
*I *216:X O *D sky130_fd_sc_hd__buf_2
*CAP
1 P[1] 8.62259e-05
2 *216:X 0.00029381
3 *10:10 0.000380036
4 P[1] P[3] 1.5289e-05
5 P[1] *12:14 1.35999e-05
6 *10:10 *46:10 0
7 *6:17 P[1] 2.88889e-05
*RES
1 *216:X *10:10 42.5054 
2 *10:10 P[1] 8.4816 
*END

*D_NET *11 0.000540554
*CONN
*P P[2] O
*I *217:X O *D sky130_fd_sc_hd__buf_2
*CAP
1 P[2] 0.00022997
2 *217:X 0.00022997
3 *209:A P[2] 8.06147e-05
*RES
1 *217:X P[2] 47.5169 
*END

*D_NET *12 0.000676002
*CONN
*P P[3] O
*I *218:X O *D sky130_fd_sc_hd__buf_2
*CAP
1 P[3] 8.68308e-05
2 *218:X 0.000236726
3 *12:14 0.000323556
4 P[1] P[3] 1.5289e-05
5 P[1] *12:14 1.35999e-05
*RES
1 *218:X *12:14 49.9 
2 *12:14 P[3] 0.382667 
*END

*D_NET *13 0.000761479
*CONN
*P P[4] O
*I *219:X O *D sky130_fd_sc_hd__buf_2
*CAP
1 P[4] 8.65766e-05
2 *219:X 0.000278539
3 *13:14 0.000365116
4 *215:A P[4] 1.5289e-05
5 *215:A *13:14 1.59585e-05
*RES
1 *219:X *13:14 49.9 
2 *13:14 P[4] 0.382667 
*END

*D_NET *14 0.00107673
*CONN
*P P[5] O
*I *220:X O *D sky130_fd_sc_hd__buf_2
*CAP
1 P[5] 0.000538367
2 *220:X 0.000538367
*RES
1 *220:X P[5] 49.1236 
*END

*D_NET *15 0.00100219
*CONN
*P P[6] O
*I *221:X O *D sky130_fd_sc_hd__buf_2
*CAP
1 P[6] 0.000501094
2 *221:X 0.000501094
3 P[6] P[7] 0
*RES
1 *221:X P[6] 48.9786 
*END

*D_NET *16 0.000960449
*CONN
*P P[7] O
*I *222:X O *D sky130_fd_sc_hd__buf_2
*CAP
1 P[7] 0.000480224
2 *222:X 0.000480224
3 P[6] P[7] 0
*RES
1 *222:X P[7] 48.5021 
*END

*D_NET *19 0.00150339
*CONN
*I *180:A I *D sky130_fd_sc_hd__xnor2_1
*I *191:A1 I *D sky130_fd_sc_hd__o21bai_1
*I *176:Y O *D sky130_fd_sc_hd__nand2_1
*CAP
1 *180:A 0.000299189
2 *191:A1 2.34823e-05
3 *176:Y 7.89691e-05
4 *19:12 0.00040582
5 *19:8 0.000162118
6 *180:A *179:B 7.05156e-05
7 *180:A *180:B 3.91386e-05
8 *180:A *33:6 0.000130423
9 *19:8 *54:19 0.000110913
10 *19:12 *33:6 0.000182826
*RES
1 *176:Y *19:8 39.5536 
2 *19:8 *19:12 17.0507 
3 *19:12 *191:A1 23.4971 
4 *19:12 *180:A 29.4007 
*END

*D_NET *20 0.00160092
*CONN
*I *179:A I *D sky130_fd_sc_hd__nor2_1
*I *191:A2 I *D sky130_fd_sc_hd__o21bai_1
*I *177:Y O *D sky130_fd_sc_hd__a21oi_1
*CAP
1 *179:A 0
2 *191:A2 0
3 *177:Y 0
4 *20:25 0.000248924
5 *20:12 0.000421952
6 *20:4 0.000670876
7 *20:12 *178:A 1.76557e-05
8 *20:12 *178:B 5.50049e-05
9 *20:12 *178:C 7.29662e-05
10 *20:12 *21:10 8.2911e-05
11 *20:12 *54:19 0
12 *20:12 *58:23 2.65879e-05
13 *20:25 *58:23 4.04598e-06
*RES
1 *177:Y *20:4 23 
2 *20:4 *20:12 38.4721 
3 *20:12 *191:A2 23 
4 *20:4 *20:25 34.1843 
5 *20:25 *179:A 23 
*END

*D_NET *21 0.00111132
*CONN
*I *191:B1_N I *D sky130_fd_sc_hd__o21bai_1
*I *179:B I *D sky130_fd_sc_hd__nor2_1
*I *178:X O *D sky130_fd_sc_hd__and3_1
*CAP
1 *191:B1_N 0
2 *179:B 0.000246928
3 *178:X 0.000115651
4 *21:12 0.000246928
5 *21:10 0.000115651
6 *179:B *180:B 0.000200449
7 *179:B *47:8 3.22879e-05
8 *180:A *179:B 7.05156e-05
9 *20:12 *21:10 8.2911e-05
*RES
1 *178:X *21:10 39.8229 
2 *21:10 *21:12 15 
3 *21:12 *179:B 29.4007 
4 *21:12 *191:B1_N 23 
*END

*D_NET *22 0.000511363
*CONN
*I *180:B I *D sky130_fd_sc_hd__xnor2_1
*I *179:Y O *D sky130_fd_sc_hd__nor2_1
*CAP
1 *180:B 0.00012706
2 *179:Y 0.00012706
3 *180:B *47:8 1.76557e-05
4 *179:B *180:B 0.000200449
5 *180:A *180:B 3.91386e-05
*RES
1 *179:Y *180:B 49.3764 
*END

*D_NET *23 0.000950535
*CONN
*I *186:A I *D sky130_fd_sc_hd__xnor2_1
*I *181:Y O *D sky130_fd_sc_hd__nand2_1
*CAP
1 *186:A 0
2 *181:Y 0.00027427
3 *23:10 0.00027427
4 *23:10 *184:A1 5.50106e-05
5 *23:10 *184:B1 1.57571e-05
6 *23:10 *185:B 6.57448e-05
7 *23:10 *196:A3 4.6318e-06
8 *23:10 *57:40 9.58714e-05
9 *23:10 *57:55 2.31013e-05
10 *23:10 *59:40 0.000141879
*RES
1 *181:Y *23:10 42.9093 
2 *23:10 *186:A 38 
*END

*D_NET *24 0.000556752
*CONN
*I *203:A I *D sky130_fd_sc_hd__xnor2_1
*I *182:Y O *D sky130_fd_sc_hd__nand2_1
*CAP
1 *203:A 5.72949e-05
2 *182:Y 0.000105845
3 *24:8 0.00016314
4 *203:A *202:C 0.000141954
5 *24:8 *202:A 8.85189e-05
6 *24:8 *203:B 0
7 *24:8 *41:10 0
8 *24:8 *55:49 0
*RES
1 *182:Y *24:8 39.9057 
2 *24:8 *203:A 39.5743 
*END

*D_NET *25 0.00123001
*CONN
*I *185:A_N I *D sky130_fd_sc_hd__and2b_1
*I *196:B1 I *D sky130_fd_sc_hd__a31o_1
*I *183:X O *D sky130_fd_sc_hd__and4_1
*CAP
1 *185:A_N 0.000159956
2 *196:B1 0.000218403
3 *183:X 0
4 *25:6 0.000378358
5 *185:A_N *184:B1 6.07611e-06
6 *185:A_N *185:B 5.57324e-05
7 *185:A_N *55:8 9.84851e-05
8 *185:A_N *55:10 3.72639e-05
9 *185:A_N *55:36 1.22803e-05
10 *196:B1 *184:B1 4.08641e-05
11 *196:B1 *185:B 6.07611e-06
12 *196:B1 *196:A3 0.000116333
13 *196:B1 *53:34 0
14 *196:B1 *58:40 0.00010018
15 *196:B1 *59:38 0
*RES
1 *183:X *25:6 38 
2 *25:6 *196:B1 42.7643 
3 *25:6 *185:A_N 41.6043 
*END

*D_NET *26 0.00127015
*CONN
*I *185:B I *D sky130_fd_sc_hd__and2b_1
*I *196:A3 I *D sky130_fd_sc_hd__a31o_1
*I *184:X O *D sky130_fd_sc_hd__a22o_1
*CAP
1 *185:B 0.000153398
2 *196:A3 0.000253254
3 *184:X 0
4 *26:6 0.000406652
5 *185:B *186:B 5.50106e-05
6 *185:B *55:36 0
7 *185:B *59:40 2.04774e-05
8 *196:A3 *196:A2 2.93845e-05
9 *196:A3 *58:40 2.4754e-05
10 *196:A3 *58:54 9.24795e-06
11 *196:A3 *59:38 3.55215e-05
12 *196:A3 *59:40 1.17049e-05
13 *196:A3 *59:68 2.22269e-05
14 *185:A_N *185:B 5.57324e-05
15 *196:B1 *185:B 6.07611e-06
16 *196:B1 *196:A3 0.000116333
17 *23:10 *185:B 6.57448e-05
18 *23:10 *196:A3 4.6318e-06
*RES
1 *184:X *26:6 38 
2 *26:6 *196:A3 43.5307 
3 *26:6 *185:B 41.7079 
*END

*D_NET *27 0.000171704
*CONN
*I *186:B I *D sky130_fd_sc_hd__xnor2_1
*I *185:X O *D sky130_fd_sc_hd__and2b_1
*CAP
1 *186:B 5.83465e-05
2 *185:X 5.83465e-05
3 *185:B *186:B 5.50106e-05
*RES
1 *185:X *186:B 47.0979 
*END

*D_NET *28 0.00242637
*CONN
*I *201:A1 I *D sky130_fd_sc_hd__a221o_1
*I *193:B1 I *D sky130_fd_sc_hd__o21ai_1
*I *194:A I *D sky130_fd_sc_hd__or3_1
*I *186:Y O *D sky130_fd_sc_hd__xnor2_1
*CAP
1 *201:A1 0
2 *193:B1 0.000112841
3 *194:A 5.94212e-05
4 *186:Y 0.000391676
5 *28:21 0.000329163
6 *28:6 0.000667419
7 *193:B1 *193:A2 0.000114846
8 *193:B1 *199:B 5.3304e-05
9 *193:B1 *201:B1 2.93747e-05
10 *193:B1 *201:B2 2.99887e-05
11 *193:B1 *201:C1 4.2573e-05
12 *193:B1 *30:32 9.18236e-05
13 *194:A *30:20 5.23699e-05
14 *194:A *37:14 2.18888e-05
15 *28:6 *194:C 0.000128096
16 *28:6 *37:14 0.000192904
17 *28:21 *30:32 0.000108681
18 *28:21 *39:8 0
*RES
1 *186:Y *28:6 31.2443 
2 *28:6 *194:A 24.4707 
3 *28:6 *28:21 32.61 
4 *28:21 *193:B1 26.5007 
5 *28:21 *201:A1 23 
*END

*D_NET *29 0.00349638
*CONN
*I *197:A I *D sky130_fd_sc_hd__nor2_1
*I *201:B2 I *D sky130_fd_sc_hd__a221o_1
*I *198:A I *D sky130_fd_sc_hd__and2_1
*I *188:B I *D sky130_fd_sc_hd__and2_1
*I *189:B I *D sky130_fd_sc_hd__nand2_1
*I *187:X O *D sky130_fd_sc_hd__and2_1
*CAP
1 *197:A 0.000133926
2 *201:B2 0.000271969
3 *198:A 2.84737e-05
4 *188:B 0
5 *189:B 3.80995e-05
6 *187:X 0.000143232
7 *29:37 0.000546559
8 *29:26 0.000286407
9 *29:17 0.000213241
10 *29:6 0.000277303
11 *197:A *35:16 0.000127272
12 *197:A *37:27 0
13 *197:A *38:14 9.84851e-05
14 *198:A *30:20 1.24376e-05
15 *198:A *36:10 1.21972e-05
16 *198:A *59:10 5.3304e-05
17 *201:B2 *199:B 2.02872e-05
18 *201:B2 *201:B1 0
19 *201:B2 *201:C1 2.93845e-05
20 *201:B2 *35:8 0.000183733
21 *29:6 *59:25 0.000228909
22 *29:17 *188:A 7.66085e-05
23 *29:17 *44:21 4.21594e-06
24 *29:17 *57:40 0
25 *29:17 *59:12 0.000129412
26 *29:26 *30:10 0.000138718
27 *29:26 *57:40 0
28 *29:26 *59:12 2.60152e-05
29 *29:37 *193:A1 0.000181943
30 *29:37 *30:10 6.48142e-05
31 *29:37 *35:16 6.38845e-05
32 *29:37 *36:10 7.55595e-05
33 *29:37 *37:27 0
34 *193:B1 *201:B2 2.99887e-05
*RES
1 *187:X *29:6 26.48 
2 *29:6 *189:B 23.6214 
3 *29:6 *29:17 18.3143 
4 *29:17 *188:B 38 
5 *29:17 *29:26 2.61 
6 *29:26 *198:A 38.6214 
7 *29:26 *29:37 4.01857 
8 *29:37 *201:B2 42.4795 
9 *29:37 *197:A 41.0036 
*END

*D_NET *30 0.0025767
*CONN
*I *193:A1 I *D sky130_fd_sc_hd__o21ai_1
*I *194:B I *D sky130_fd_sc_hd__or3_1
*I *201:A2 I *D sky130_fd_sc_hd__a221o_1
*I *188:X O *D sky130_fd_sc_hd__and2_1
*CAP
1 *193:A1 8.92249e-05
2 *194:B 0
3 *201:A2 0
4 *188:X 0.000167635
5 *30:32 0.000141378
6 *30:20 0.000321863
7 *30:10 0.000437345
8 *193:A1 *37:27 6.18235e-05
9 *30:10 *37:27 1.86973e-05
10 *30:10 *57:40 5.50049e-05
11 *30:10 *59:12 0.000111852
12 *30:20 *36:10 0.000148698
13 *30:20 *37:14 0.000108264
14 *30:20 *37:27 5.50049e-05
15 *30:20 *59:10 2.02872e-05
16 *30:32 *193:A2 9.7301e-05
17 *30:32 *201:B1 9.15295e-05
18 *30:32 *39:8 0
19 *193:B1 *30:32 9.18236e-05
20 *194:A *30:20 5.23699e-05
21 *198:A *30:20 1.24376e-05
22 *28:21 *30:32 0.000108681
23 *29:26 *30:10 0.000138718
24 *29:37 *193:A1 0.000181943
25 *29:37 *30:10 6.48142e-05
*RES
1 *188:X *30:10 41.2314 
2 *30:10 *30:20 20.4479 
3 *30:20 *30:32 33.6716 
4 *30:32 *201:A2 23 
5 *30:20 *194:B 23 
6 *30:10 *193:A1 40.61 
*END

*D_NET *31 0.00160312
*CONN
*I *192:A I *D sky130_fd_sc_hd__and3_1
*I *204:A1 I *D sky130_fd_sc_hd__a21oi_1
*I *189:Y O *D sky130_fd_sc_hd__nand2_1
*CAP
1 *192:A 0.000141777
2 *204:A1 0
3 *189:Y 7.22726e-05
4 *31:18 0.00015888
5 *31:12 0.000368875
6 *31:8 0.00014049
7 *192:A *190:A1 3.34247e-05
8 *192:A *190:A2 0.000143655
9 *31:8 *190:B1 0
10 *31:8 *44:21 8.62876e-05
11 *31:8 *57:12 1.02387e-05
12 *31:12 *174:B 9.84794e-05
13 *31:12 *190:A1 1.21972e-05
14 *31:12 *44:6 5.50106e-05
15 *31:18 *190:B1 3.70094e-05
16 *31:18 *32:12 0
17 *31:18 *33:23 0
18 *31:18 *45:20 0.000244526
19 *31:18 *57:12 0
*RES
1 *189:Y *31:8 39.5536 
2 *31:8 *31:12 16.5743 
3 *31:12 *31:18 33.6664 
4 *31:18 *204:A1 23 
5 *31:12 *192:A 26.0036 
*END

*D_NET *32 0.000915107
*CONN
*I *192:B I *D sky130_fd_sc_hd__and3_1
*I *204:A2 I *D sky130_fd_sc_hd__a21oi_1
*I *190:X O *D sky130_fd_sc_hd__a22o_1
*CAP
1 *192:B 0.000114768
2 *204:A2 0
3 *190:X 0
4 *32:12 0.000146117
5 *32:4 0.000260886
6 *192:B *190:A2 5.12328e-05
7 *32:12 *204:B1 0.00010655
8 *32:12 *33:23 5.01247e-05
9 *32:12 *34:18 0.000185428
10 *31:18 *32:12 0
*RES
1 *190:X *32:4 23 
2 *32:4 *32:12 34.3086 
3 *32:12 *204:A2 23 
4 *32:4 *192:B 24.5743 
*END

*D_NET *33 0.00345902
*CONN
*I *192:C I *D sky130_fd_sc_hd__and3_1
*I *204:B1 I *D sky130_fd_sc_hd__a21oi_1
*I *191:Y O *D sky130_fd_sc_hd__o21bai_1
*CAP
1 *192:C 0
2 *204:B1 0.000337757
3 *191:Y 0.000794105
4 *33:23 0.000220503
5 *33:6 0.00135237
6 *204:B1 *34:18 0.000106833
7 *33:6 *34:18 1.83408e-05
8 *33:23 *190:A2 1.95448e-05
9 *33:23 *190:B1 0
10 *33:23 *34:18 0.000139647
11 *33:23 *34:29 0
12 *33:23 *45:20 0
13 *180:A *33:6 0.000130423
14 *19:12 *33:6 0.000182826
15 *31:18 *33:23 0
16 *32:12 *204:B1 0.00010655
17 *32:12 *33:23 5.01247e-05
*RES
1 *191:Y *33:6 34.1029 
2 *33:6 *204:B1 28.4064 
3 *33:6 *33:23 34.5986 
4 *33:23 *192:C 23 
*END

*D_NET *34 0.00533291
*CONN
*I *201:B1 I *D sky130_fd_sc_hd__a221o_1
*I *193:A2 I *D sky130_fd_sc_hd__o21ai_1
*I *194:C I *D sky130_fd_sc_hd__or3_1
*I *205:A I *D sky130_fd_sc_hd__nor2_1
*I *192:X O *D sky130_fd_sc_hd__and3_1
*CAP
1 *201:B1 0.000138805
2 *193:A2 0.000348486
3 *194:C 4.90552e-05
4 *205:A 0
5 *192:X 0
6 *34:44 0.000797139
7 *34:29 0.00107638
8 *34:18 0.000424968
9 *34:4 0.00114245
10 *193:A2 *199:B 3.55732e-05
11 *194:C *37:14 0.000233359
12 *34:18 *190:A2 1.83446e-05
13 *34:18 *205:B 6.81213e-05
14 *34:29 *181:B 0
15 *34:29 *190:A2 7.74019e-05
16 *34:29 *54:19 0
17 *34:29 *54:30 0
18 *34:29 *58:54 0
19 *34:44 *41:10 1.14299e-05
20 *193:B1 *193:A2 0.000114846
21 *193:B1 *201:B1 2.93747e-05
22 *201:B2 *201:B1 0
23 *204:B1 *34:18 0.000106833
24 *28:6 *194:C 0.000128096
25 *30:32 *193:A2 9.7301e-05
26 *30:32 *201:B1 9.15295e-05
27 *32:12 *34:18 0.000185428
28 *33:6 *34:18 1.83408e-05
29 *33:23 *34:18 0.000139647
30 *33:23 *34:29 0
*RES
1 *192:X *34:4 23 
2 *34:4 *34:18 39.0314 
3 *34:18 *205:A 23 
4 *34:4 *34:29 26.8279 
5 *34:29 *194:C 40.5271 
6 *34:29 *34:44 19.3086 
7 *34:44 *193:A2 27.9093 
8 *34:44 *201:B1 26.1279 
*END

*D_NET *35 0.00120978
*CONN
*I *195:A I *D sky130_fd_sc_hd__and2_1
*I *200:A I *D sky130_fd_sc_hd__xnor2_1
*I *193:Y O *D sky130_fd_sc_hd__o21ai_1
*CAP
1 *195:A 0
2 *200:A 0
3 *193:Y 0.000100096
4 *35:16 0.000175522
5 *35:8 0.000275617
6 *35:8 *199:B 0.000173727
7 *35:16 *36:10 1.14452e-05
8 *35:16 *38:14 9.84794e-05
9 *35:16 *40:8 0
10 *197:A *35:16 0.000127272
11 *201:B2 *35:8 0.000183733
12 *29:37 *35:16 6.38845e-05
*RES
1 *193:Y *35:8 26.0243 
2 *35:8 *35:16 33.7079 
3 *35:16 *200:A 23 
4 *35:8 *195:A 23 
*END

*D_NET *36 0.00113293
*CONN
*I *195:B I *D sky130_fd_sc_hd__and2_1
*I *194:X O *D sky130_fd_sc_hd__or3_1
*CAP
1 *195:B 0
2 *194:X 0.000430131
3 *36:10 0.000430131
4 *36:10 *38:14 0
5 *36:10 *59:10 2.47702e-05
6 *198:A *36:10 1.21972e-05
7 *29:37 *36:10 7.55595e-05
8 *30:20 *36:10 0.000148698
9 *35:16 *36:10 1.14452e-05
*RES
1 *194:X *36:10 44.6907 
2 *36:10 *195:B 38 
*END

*D_NET *37 0.00349644
*CONN
*I *197:B I *D sky130_fd_sc_hd__nor2_1
*I *198:B I *D sky130_fd_sc_hd__and2_1
*I *196:X O *D sky130_fd_sc_hd__a31o_1
*CAP
1 *197:B 0
2 *198:B 0
3 *196:X 0.000217767
4 *37:27 0.000311386
5 *37:14 0.000921415
6 *37:8 0.000827796
7 *37:8 *58:54 0.000181991
8 *37:8 *59:38 6.19668e-05
9 *37:8 *59:40 9.41862e-05
10 *37:27 *39:8 0.000187986
11 *193:A1 *37:27 6.18235e-05
12 *194:A *37:14 2.18888e-05
13 *194:C *37:14 0.000233359
14 *197:A *37:27 0
15 *28:6 *37:14 0.000192904
16 *29:37 *37:27 0
17 *30:10 *37:27 1.86973e-05
18 *30:20 *37:14 0.000108264
19 *30:20 *37:27 5.50049e-05
*RES
1 *196:X *37:8 42.3707 
2 *37:8 *37:14 27.5529 
3 *37:14 *198:B 23 
4 *37:14 *37:27 36.4007 
5 *37:27 *197:B 23 
*END

*D_NET *38 0.00115211
*CONN
*I *199:A I *D sky130_fd_sc_hd__nor2_1
*I *197:Y O *D sky130_fd_sc_hd__nor2_1
*CAP
1 *199:A 0
2 *197:Y 0.00041301
3 *38:14 0.00041301
4 *38:14 *200:B 4.28464e-05
5 *38:14 *40:8 8.62783e-05
6 *197:A *38:14 9.84851e-05
7 *35:16 *38:14 9.84794e-05
8 *36:10 *38:14 0
*RES
1 *197:Y *38:14 45.4571 
2 *38:14 *199:A 38 
*END

*D_NET *39 0.00142471
*CONN
*I *201:C1 I *D sky130_fd_sc_hd__a221o_1
*I *199:B I *D sky130_fd_sc_hd__nor2_1
*I *198:X O *D sky130_fd_sc_hd__and2_1
*CAP
1 *201:C1 1.53034e-05
2 *199:B 0.000269765
3 *198:X 0.000127514
4 *39:10 0.000285069
5 *39:8 0.000127514
6 *199:B *49:8 5.67058e-05
7 *193:A2 *199:B 3.55732e-05
8 *193:B1 *199:B 5.3304e-05
9 *193:B1 *201:C1 4.2573e-05
10 *201:B2 *199:B 2.02872e-05
11 *201:B2 *201:C1 2.93845e-05
12 *28:21 *39:8 0
13 *30:32 *39:8 0
14 *35:8 *199:B 0.000173727
15 *37:27 *39:8 0.000187986
*RES
1 *198:X *39:8 40.61 
2 *39:8 *39:10 15 
3 *39:10 *199:B 29.1936 
4 *39:10 *201:C1 23.6214 
*END

*D_NET *40 0.000464505
*CONN
*I *200:B I *D sky130_fd_sc_hd__xnor2_1
*I *199:Y O *D sky130_fd_sc_hd__nor2_1
*CAP
1 *200:B 5.18423e-05
2 *199:Y 0.000115848
3 *40:8 0.00016769
4 *35:16 *40:8 0
5 *38:14 *200:B 4.28464e-05
6 *38:14 *40:8 8.62783e-05
*RES
1 *199:Y *40:8 40.2579 
2 *40:8 *200:B 39.0979 
*END

*D_NET *41 0.00185739
*CONN
*I *203:B I *D sky130_fd_sc_hd__xnor2_1
*I *202:C I *D sky130_fd_sc_hd__and3_1
*I *201:X O *D sky130_fd_sc_hd__a221o_1
*CAP
1 *203:B 4.43086e-05
2 *202:C 0.00016358
3 *201:X 0.000555826
4 *41:10 0.000763714
5 *202:C *202:A 0.000126044
6 *202:C *51:10 5.05383e-05
7 *203:B *55:49 0
8 *203:A *202:C 0.000141954
9 *24:8 *203:B 0
10 *24:8 *41:10 0
11 *34:44 *41:10 1.14299e-05
*RES
1 *201:X *41:10 45.4157 
2 *41:10 *202:C 41.7907 
3 *41:10 *203:B 38.8493 
*END

*D_NET *42 0.00030214
*CONN
*I *205:B I *D sky130_fd_sc_hd__nor2_1
*I *204:Y O *D sky130_fd_sc_hd__a21oi_1
*CAP
1 *205:B 0.000100865
2 *204:Y 0.000100865
3 *205:B *48:8 3.22879e-05
4 *34:18 *205:B 6.81213e-05
*RES
1 *204:Y *205:B 48.5686 
*END

*D_NET *43 0.000252804
*CONN
*I *206:A I *D sky130_fd_sc_hd__clkbuf_1
*I *175:X O *D sky130_fd_sc_hd__and2_1
*CAP
1 *206:A 5.39506e-05
2 *175:X 5.39506e-05
3 *206:A *175:B 0.000144903
*RES
1 *175:X *206:A 47.5743 
*END

*D_NET *44 0.00133185
*CONN
*I *188:A I *D sky130_fd_sc_hd__and2_1
*I *189:A I *D sky130_fd_sc_hd__nand2_1
*I *207:A I *D sky130_fd_sc_hd__clkbuf_1
*I *174:X O *D sky130_fd_sc_hd__and2_1
*CAP
1 *188:A 0.000121035
2 *189:A 0
3 *207:A 0.000169813
4 *174:X 7.45091e-05
5 *44:21 0.000180786
6 *44:6 0.000304073
7 *188:A *57:12 7.90464e-05
8 *188:A *57:40 6.25075e-05
9 *207:A *174:B 7.53384e-06
10 *207:A *190:A1 2.03559e-05
11 *44:6 *174:B 1.72202e-05
12 *44:21 *190:B1 0
13 *44:21 *57:12 7.28526e-05
14 *44:21 *59:12 0
15 *29:17 *188:A 7.66085e-05
16 *29:17 *44:21 4.21594e-06
17 *31:8 *44:21 8.62876e-05
18 *31:12 *44:6 5.50106e-05
*RES
1 *174:X *44:6 24.0979 
2 *44:6 *207:A 26.045 
3 *44:6 *44:21 16.9057 
4 *44:21 *189:A 38 
5 *44:21 *188:A 41.5836 
*END

*D_NET *45 0.0021922
*CONN
*I *175:A I *D sky130_fd_sc_hd__and2_1
*I *190:B2 I *D sky130_fd_sc_hd__a22o_1
*I *174:B I *D sky130_fd_sc_hd__and2_1
*I *208:X O *D sky130_fd_sc_hd__clkbuf_1
*CAP
1 *175:A 4.05245e-05
2 *190:B2 0
3 *174:B 3.30346e-05
4 *208:X 0.000166784
5 *45:20 0.000669018
6 *45:12 0.000676508
7 *45:10 0.000166784
8 *174:B *190:A1 7.17845e-05
9 *45:20 *57:12 0
10 *207:A *174:B 7.53384e-06
11 *31:12 *174:B 9.84794e-05
12 *31:18 *45:20 0.000244526
13 *33:23 *45:20 0
14 *44:6 *174:B 1.72202e-05
*RES
1 *208:X *45:10 40.5271 
2 *45:10 *45:12 15 
3 *45:12 *45:20 41.0407 
4 *45:20 *174:B 24.5743 
5 *45:20 *190:B2 23 
6 *45:12 *175:A 23.6214 
*END

*D_NET *46 0.000739549
*CONN
*I *216:A I *D sky130_fd_sc_hd__buf_2
*I *207:X O *D sky130_fd_sc_hd__clkbuf_1
*CAP
1 *216:A 0
2 *207:X 0.000369775
3 *46:10 0.000369775
4 *10:10 *46:10 0
*RES
1 *207:X *46:10 43.3857 
2 *46:10 *216:A 38 
*END

*D_NET *47 0.000790618
*CONN
*I *217:A I *D sky130_fd_sc_hd__buf_2
*I *180:Y O *D sky130_fd_sc_hd__xnor2_1
*CAP
1 *217:A 0
2 *180:Y 0.000370337
3 *47:8 0.000370337
4 *179:B *47:8 3.22879e-05
5 *180:B *47:8 1.76557e-05
*RES
1 *180:Y *47:8 29.7114 
2 *47:8 *217:A 23 
*END

*D_NET *48 0.000796077
*CONN
*I *218:A I *D sky130_fd_sc_hd__buf_2
*I *205:Y O *D sky130_fd_sc_hd__nor2_1
*CAP
1 *218:A 0
2 *205:Y 0.000381894
3 *48:8 0.000381894
4 *205:B *48:8 3.22879e-05
*RES
1 *205:Y *48:8 29.8357 
2 *48:8 *218:A 23 
*END

*D_NET *49 0.000709991
*CONN
*I *219:A I *D sky130_fd_sc_hd__buf_2
*I *195:X O *D sky130_fd_sc_hd__and2_1
*CAP
1 *219:A 0
2 *195:X 0.000326643
3 *49:8 0.000326643
4 *199:B *49:8 5.67058e-05
*RES
1 *195:X *49:8 29.3593 
2 *49:8 *219:A 23 
*END

*D_NET *50 0.000727205
*CONN
*I *220:A I *D sky130_fd_sc_hd__buf_2
*I *200:Y O *D sky130_fd_sc_hd__xnor2_1
*CAP
1 *220:A 0.000221948
2 *200:Y 0.000141654
3 *50:8 0.000363602
*RES
1 *200:Y *50:8 40.61 
2 *50:8 *220:A 41.9564 
*END

*D_NET *51 0.00074469
*CONN
*I *221:A I *D sky130_fd_sc_hd__buf_2
*I *203:Y O *D sky130_fd_sc_hd__xnor2_1
*CAP
1 *221:A 0
2 *203:Y 0.000333282
3 *51:10 0.000333282
4 *51:10 *202:A 2.75878e-05
5 *51:10 *52:8 0
6 *51:10 *55:49 0
7 *202:C *51:10 5.05383e-05
*RES
1 *203:Y *51:10 44.09 
2 *51:10 *221:A 38 
*END

*D_NET *52 0.000390539
*CONN
*I *222:A I *D sky130_fd_sc_hd__buf_2
*I *202:X O *D sky130_fd_sc_hd__and3_1
*CAP
1 *222:A 6.80678e-05
2 *202:X 0.000124163
3 *52:8 0.000192231
4 *52:8 *55:49 6.07611e-06
5 *51:10 *52:8 0
*RES
1 *202:X *52:8 40.2579 
2 *52:8 *222:A 39.0979 
*END

*D_NET *53 0.00349289
*CONN
*I *184:A1 I *D sky130_fd_sc_hd__a22o_1
*I *183:B I *D sky130_fd_sc_hd__and4_1
*I *177:A2 I *D sky130_fd_sc_hd__a21oi_1
*I *178:C I *D sky130_fd_sc_hd__and3_1
*I *209:X O *D sky130_fd_sc_hd__buf_1
*CAP
1 *184:A1 0.000237529
2 *183:B 0
3 *177:A2 0
4 *178:C 8.6415e-05
5 *209:X 0.000613188
6 *53:34 0.000436808
7 *53:12 0.000175401
8 *53:8 0.000901454
9 *178:C *178:A 5.50049e-05
10 *178:C *58:23 2.81138e-05
11 *184:A1 *183:C 0.00030805
12 *184:A1 *184:B1 2.02872e-05
13 *184:A1 *57:55 9.24795e-06
14 *53:12 *178:B 2.71291e-05
15 *53:12 *57:61 0.000108681
16 *53:12 *58:40 4.08641e-05
17 *53:34 *184:B1 9.48381e-06
18 *53:34 *57:55 2.93747e-05
19 *53:34 *57:61 0.000250839
20 *53:34 *58:40 2.70366e-05
21 *53:34 *59:38 0
22 *196:B1 *53:34 0
23 *20:12 *178:C 7.29662e-05
24 *23:10 *184:A1 5.50106e-05
*RES
1 *209:X *53:8 45.7679 
2 *53:8 *53:12 16.9057 
3 *53:12 *178:C 25.2993 
4 *53:12 *177:A2 23 
5 *53:8 *53:34 19.64 
6 *53:34 *183:B 23 
7 *53:34 *184:A1 27.93 
*END

*D_NET *54 0.00546708
*CONN
*I *181:B I *D sky130_fd_sc_hd__nand2_1
*I *196:A2 I *D sky130_fd_sc_hd__a31o_1
*I *187:A I *D sky130_fd_sc_hd__and2_1
*I *190:A2 I *D sky130_fd_sc_hd__a22o_1
*I *176:B I *D sky130_fd_sc_hd__nand2_1
*I *210:X O *D sky130_fd_sc_hd__buf_1
*CAP
1 *181:B 0.000180919
2 *196:A2 9.99878e-05
3 *187:A 0.000250028
4 *190:A2 0.000524288
5 *176:B 0
6 *210:X 0.000321876
7 *54:32 0.000350016
8 *54:30 0.0003201
9 *54:19 0.000965946
10 *54:10 0.000624353
11 *181:B *57:40 7.67084e-05
12 *181:B *57:55 1.94411e-05
13 *181:B *58:54 0.000195248
14 *187:A *59:38 0.00067125
15 *196:A2 *58:54 2.4754e-05
16 *196:A2 *59:38 0.000168687
17 *54:10 *56:8 0.000141879
18 *54:30 *58:54 6.16439e-05
19 *192:A *190:A2 0.000143655
20 *192:B *190:A2 5.12328e-05
21 *196:A3 *196:A2 2.93845e-05
22 *210:A *54:10 1.94812e-05
23 *19:8 *54:19 0.000110913
24 *20:12 *54:19 0
25 *33:23 *190:A2 1.95448e-05
26 *34:18 *190:A2 1.83446e-05
27 *34:29 *181:B 0
28 *34:29 *190:A2 7.74019e-05
29 *34:29 *54:19 0
30 *34:29 *54:30 0
*RES
1 *210:X *54:10 43.2614 
2 *54:10 *176:B 38 
3 *54:10 *54:19 5.77929 
4 *54:19 *190:A2 48.6264 
5 *54:19 *54:30 2.61 
6 *54:30 *54:32 15 
7 *54:32 *187:A 30.2914 
8 *54:32 *196:A2 25.5271 
9 *54:30 *181:B 42.7021 
*END

*D_NET *55 0.00384778
*CONN
*I *202:B I *D sky130_fd_sc_hd__and3_1
*I *182:B I *D sky130_fd_sc_hd__nand2_1
*I *183:D I *D sky130_fd_sc_hd__and4_1
*I *184:B1 I *D sky130_fd_sc_hd__a22o_1
*I *211:X O *D sky130_fd_sc_hd__buf_1
*CAP
1 *202:B 0
2 *182:B 6.34506e-05
3 *183:D 0
4 *184:B1 0.000196641
5 *211:X 0.00067417
6 *55:49 0.00020062
7 *55:36 0.00059815
8 *55:10 0.000256793
9 *55:8 0.0010684
10 *184:B1 *183:C 0.000265477
11 *184:B1 *57:55 0.000231333
12 *55:36 *59:40 0
13 *55:49 *202:A 4.3407e-05
14 *55:49 *59:40 2.76611e-06
15 *184:A1 *184:B1 2.02872e-05
16 *185:A_N *184:B1 6.07611e-06
17 *185:A_N *55:8 9.84851e-05
18 *185:A_N *55:10 3.72639e-05
19 *185:A_N *55:36 1.22803e-05
20 *185:B *55:36 0
21 *196:B1 *184:B1 4.08641e-05
22 *203:B *55:49 0
23 *23:10 *184:B1 1.57571e-05
24 *24:8 *55:49 0
25 *51:10 *55:49 0
26 *52:8 *55:49 6.07611e-06
27 *53:34 *184:B1 9.48381e-06
*RES
1 *211:X *55:8 47.1971 
2 *55:8 *55:10 1.20143 
3 *55:10 *184:B1 43.655 
4 *55:10 *183:D 38 
5 *55:8 *55:36 21.0693 
6 *55:36 *182:B 24.0979 
7 *55:36 *55:49 33.6664 
8 *55:49 *202:B 23 
*END

*D_NET *56 0.00118918
*CONN
*I *176:A I *D sky130_fd_sc_hd__nand2_1
*I *175:B I *D sky130_fd_sc_hd__and2_1
*I *212:X O *D sky130_fd_sc_hd__clkbuf_1
*CAP
1 *176:A 2.34823e-05
2 *175:B 0.000305448
3 *212:X 8.39427e-05
4 *56:12 0.000367257
5 *56:8 0.00012227
6 *56:8 *60:8 0
7 *206:A *175:B 0.000144903
8 *54:10 *56:8 0.000141879
*RES
1 *212:X *56:8 39.9057 
2 *56:8 *56:12 15.6214 
3 *56:12 *175:B 28.8829 
4 *56:12 *176:A 23.4971 
*END

*D_NET *57 0.00717355
*CONN
*I *183:A I *D sky130_fd_sc_hd__and4_1
*I *177:A1 I *D sky130_fd_sc_hd__a21oi_1
*I *178:A I *D sky130_fd_sc_hd__and3_1
*I *184:B2 I *D sky130_fd_sc_hd__a22o_1
*I *174:A I *D sky130_fd_sc_hd__and2_1
*I *190:A1 I *D sky130_fd_sc_hd__a22o_1
*I *213:X O *D sky130_fd_sc_hd__buf_1
*CAP
1 *183:A 0
2 *177:A1 0
3 *178:A 2.86502e-05
4 *184:B2 0
5 *174:A 0
6 *190:A1 0.000317637
7 *213:X 0.000442501
8 *57:61 0.000177803
9 *57:55 0.000687763
10 *57:40 0.00157047
11 *57:12 0.000592072
12 *57:8 0.0017488
13 *178:A *58:23 9.58714e-05
14 *57:55 *183:C 1.76557e-05
15 *57:61 *58:10 0.00015965
16 *174:B *190:A1 7.17845e-05
17 *178:C *178:A 5.50049e-05
18 *181:B *57:40 7.67084e-05
19 *181:B *57:55 1.94411e-05
20 *184:A1 *57:55 9.24795e-06
21 *184:B1 *57:55 0.000231333
22 *188:A *57:12 7.90464e-05
23 *188:A *57:40 6.25075e-05
24 *192:A *190:A1 3.34247e-05
25 *207:A *190:A1 2.03559e-05
26 *20:12 *178:A 1.76557e-05
27 *23:10 *57:40 9.58714e-05
28 *23:10 *57:55 2.31013e-05
29 *29:17 *57:40 0
30 *29:26 *57:40 0
31 *30:10 *57:40 5.50049e-05
32 *31:8 *57:12 1.02387e-05
33 *31:12 *190:A1 1.21972e-05
34 *31:18 *57:12 0
35 *44:21 *57:12 7.28526e-05
36 *45:20 *57:12 0
37 *53:12 *57:61 0.000108681
38 *53:34 *57:55 2.93747e-05
39 *53:34 *57:61 0.000250839
*RES
1 *213:X *57:8 43.8621 
2 *57:8 *57:12 20.075 
3 *57:12 *190:A1 29.2971 
4 *57:12 *174:A 23 
5 *57:8 *57:40 32.4414 
6 *57:40 *184:B2 23 
7 *57:40 *57:55 8.80357 
8 *57:55 *57:61 34.7229 
9 *57:61 *178:A 24.0979 
10 *57:61 *177:A1 23 
11 *57:55 *183:A 23 
*END

*D_NET *58 0.00468306
*CONN
*I *196:A1 I *D sky130_fd_sc_hd__a31o_1
*I *181:A I *D sky130_fd_sc_hd__nand2_1
*I *178:B I *D sky130_fd_sc_hd__and3_1
*I *177:B1 I *D sky130_fd_sc_hd__a21oi_1
*I *214:X O *D sky130_fd_sc_hd__buf_1
*CAP
1 *196:A1 0