* NGSPICE file created from mult8_2bits_1op_e16767.ext - technology: sky130A

* Black-box entry subcircuit for sky130_fd_sc_hd__tapvpwrvgnd_1 abstract view
.subckt sky130_fd_sc_hd__tapvpwrvgnd_1 VGND VPWR
.ends

* Black-box entry subcircuit for sky130_ef_sc_hd__decap_12 abstract view
.subckt sky130_ef_sc_hd__decap_12 VPWR VGND VPB VNB
.ends

* Black-box entry subcircuit for sky130_fd_sc_hd__decap_6 abstract view
.subckt sky130_fd_sc_hd__decap_6 VGND VNB VPB VPWR
.ends

* Black-box entry subcircuit for sky130_fd_sc_hd__a2bb2o_2 abstract view
.subckt sky130_fd_sc_hd__a2bb2o_2 A1_N A2_N B1 B2 VGND VNB VPB VPWR X
.ends

* Black-box entry subcircuit for sky130_fd_sc_hd__xnor2_1 abstract view
.subckt sky130_fd_sc_hd__xnor2_1 A B VGND VNB VPB VPWR Y
.ends

* Black-box entry subcircuit for sky130_fd_sc_hd__fill_1 abstract view
.subckt sky130_fd_sc_hd__fill_1 VGND VNB VPB VPWR
.ends

* Black-box entry subcircuit for sky130_fd_sc_hd__decap_8 abstract view
.subckt sky130_fd_sc_hd__decap_8 VGND VNB VPB VPWR
.ends

* Black-box entry subcircuit for sky130_fd_sc_hd__dlygate4sd1_1 abstract view
.subckt sky130_fd_sc_hd__dlygate4sd1_1 A VGND VNB VPB VPWR X
.ends

* Black-box entry subcircuit for sky130_fd_sc_hd__nand2_1 abstract view
.subckt sky130_fd_sc_hd__nand2_1 A B VGND VNB VPB VPWR Y
.ends

* Black-box entry subcircuit for sky130_fd_sc_hd__or3b_4 abstract view
.subckt sky130_fd_sc_hd__or3b_4 A B C_N VGND VNB VPB VPWR X
.ends

* Black-box entry subcircuit for sky130_fd_sc_hd__fill_2 abstract view
.subckt sky130_fd_sc_hd__fill_2 VGND VNB VPB VPWR
.ends

* Black-box entry subcircuit for sky130_fd_sc_hd__decap_4 abstract view
.subckt sky130_fd_sc_hd__decap_4 VGND VNB VPB VPWR
.ends

* Black-box entry subcircuit for sky130_fd_sc_hd__and3_1 abstract view
.subckt sky130_fd_sc_hd__and3_1 A B C VGND VNB VPB VPWR X
.ends

* Black-box entry subcircuit for sky130_fd_sc_hd__nor2_1 abstract view
.subckt sky130_fd_sc_hd__nor2_1 A B VGND VNB VPB VPWR Y
.ends

* Black-box entry subcircuit for sky130_fd_sc_hd__decap_3 abstract view
.subckt sky130_fd_sc_hd__decap_3 VGND VNB VPB VPWR
.ends

* Black-box entry subcircuit for sky130_fd_sc_hd__buf_6 abstract view
.subckt sky130_fd_sc_hd__buf_6 A VGND VNB VPB VPWR X
.ends

* Black-box entry subcircuit for sky130_fd_sc_hd__o2111a_1 abstract view
.subckt sky130_fd_sc_hd__o2111a_1 A1 A2 B1 C1 D1 VGND VNB VPB VPWR X
.ends

* Black-box entry subcircuit for sky130_fd_sc_hd__inv_2 abstract view
.subckt sky130_fd_sc_hd__inv_2 A VGND VNB VPB VPWR Y
.ends

* Black-box entry subcircuit for sky130_fd_sc_hd__a21oi_1 abstract view
.subckt sky130_fd_sc_hd__a21oi_1 A1 A2 B1 VGND VNB VPB VPWR Y
.ends

* Black-box entry subcircuit for sky130_fd_sc_hd__dlymetal6s2s_1 abstract view
.subckt sky130_fd_sc_hd__dlymetal6s2s_1 A VGND VNB VPB VPWR X
.ends

* Black-box entry subcircuit for sky130_fd_sc_hd__and2b_1 abstract view
.subckt sky130_fd_sc_hd__and2b_1 A_N B VGND VNB VPB VPWR X
.ends

* Black-box entry subcircuit for sky130_fd_sc_hd__or2_1 abstract view
.subckt sky130_fd_sc_hd__or2_1 A B VGND VNB VPB VPWR X
.ends

* Black-box entry subcircuit for sky130_fd_sc_hd__and2_1 abstract view
.subckt sky130_fd_sc_hd__and2_1 A B VGND VNB VPB VPWR X
.ends

* Black-box entry subcircuit for sky130_fd_sc_hd__a31o_1 abstract view
.subckt sky130_fd_sc_hd__a31o_1 A1 A2 A3 B1 VGND VNB VPB VPWR X
.ends

* Black-box entry subcircuit for sky130_fd_sc_hd__xnor2_2 abstract view
.subckt sky130_fd_sc_hd__xnor2_2 A B VGND VNB VPB VPWR Y
.ends

* Black-box entry subcircuit for sky130_fd_sc_hd__buf_8 abstract view
.subckt sky130_fd_sc_hd__buf_8 A VGND VNB VPB VPWR X
.ends

* Black-box entry subcircuit for sky130_fd_sc_hd__or4_1 abstract view
.subckt sky130_fd_sc_hd__or4_1 A B C D VGND VNB VPB VPWR X
.ends

* Black-box entry subcircuit for sky130_fd_sc_hd__a22o_1 abstract view
.subckt sky130_fd_sc_hd__a22o_1 A1 A2 B1 B2 VGND VNB VPB VPWR X
.ends

* Black-box entry subcircuit for sky130_fd_sc_hd__or3b_1 abstract view
.subckt sky130_fd_sc_hd__or3b_1 A B C_N VGND VNB VPB VPWR X
.ends

* Black-box entry subcircuit for sky130_fd_sc_hd__xor2_1 abstract view
.subckt sky130_fd_sc_hd__xor2_1 A B VGND VNB VPB VPWR X
.ends

* Black-box entry subcircuit for sky130_fd_sc_hd__mux2_4 abstract view
.subckt sky130_fd_sc_hd__mux2_4 A0 A1 S VGND VNB VPB VPWR X
.ends

* Black-box entry subcircuit for sky130_fd_sc_hd__buf_2 abstract view
.subckt sky130_fd_sc_hd__buf_2 A VGND VNB VPB VPWR X
.ends

* Black-box entry subcircuit for sky130_fd_sc_hd__o31a_1 abstract view
.subckt sky130_fd_sc_hd__o31a_1 A1 A2 A3 B1 VGND VNB VPB VPWR X
.ends

* Black-box entry subcircuit for sky130_fd_sc_hd__nand2b_1 abstract view
.subckt sky130_fd_sc_hd__nand2b_1 A_N B VGND VNB VPB VPWR Y
.ends

* Black-box entry subcircuit for sky130_fd_sc_hd__or3_1 abstract view
.subckt sky130_fd_sc_hd__or3_1 A B C VGND VNB VPB VPWR X
.ends

* Black-box entry subcircuit for sky130_fd_sc_hd__a21o_1 abstract view
.subckt sky130_fd_sc_hd__a21o_1 A1 A2 B1 VGND VNB VPB VPWR X
.ends

* Black-box entry subcircuit for sky130_fd_sc_hd__nand4_2 abstract view
.subckt sky130_fd_sc_hd__nand4_2 A B C D VGND VNB VPB VPWR Y
.ends

* Black-box entry subcircuit for sky130_fd_sc_hd__a2bb2o_1 abstract view
.subckt sky130_fd_sc_hd__a2bb2o_1 A1_N A2_N B1 B2 VGND VNB VPB VPWR X
.ends

* Black-box entry subcircuit for sky130_fd_sc_hd__a22oi_1 abstract view
.subckt sky130_fd_sc_hd__a22oi_1 A1 A2 B1 B2 VGND VNB VPB VPWR Y
.ends

* Black-box entry subcircuit for sky130_fd_sc_hd__a41o_1 abstract view
.subckt sky130_fd_sc_hd__a41o_1 A1 A2 A3 A4 B1 VGND VNB VPB VPWR X
.ends

* Black-box entry subcircuit for sky130_fd_sc_hd__xor2_4 abstract view
.subckt sky130_fd_sc_hd__xor2_4 A B VGND VNB VPB VPWR X
.ends

* Black-box entry subcircuit for sky130_fd_sc_hd__and4b_1 abstract view
.subckt sky130_fd_sc_hd__and4b_1 A_N B C D VGND VNB VPB VPWR X
.ends

* Black-box entry subcircuit for sky130_fd_sc_hd__and3b_1 abstract view
.subckt sky130_fd_sc_hd__and3b_1 A_N B C VGND VNB VPB VPWR X
.ends

* Black-box entry subcircuit for sky130_fd_sc_hd__a311oi_4 abstract view
.subckt sky130_fd_sc_hd__a311oi_4 A1 A2 A3 B1 C1 VGND VNB VPB VPWR Y
.ends

* Black-box entry subcircuit for sky130_fd_sc_hd__nand2_2 abstract view
.subckt sky130_fd_sc_hd__nand2_2 A B VGND VNB VPB VPWR Y
.ends

* Black-box entry subcircuit for sky130_fd_sc_hd__and4_1 abstract view
.subckt sky130_fd_sc_hd__and4_1 A B C D VGND VNB VPB VPWR X
.ends

* Black-box entry subcircuit for sky130_fd_sc_hd__clkbuf_4 abstract view
.subckt sky130_fd_sc_hd__clkbuf_4 A VGND VNB VPB VPWR X
.ends

* Black-box entry subcircuit for sky130_fd_sc_hd__buf_4 abstract view
.subckt sky130_fd_sc_hd__buf_4 A VGND VNB VPB VPWR X
.ends

* Black-box entry subcircuit for sky130_fd_sc_hd__or3_4 abstract view
.subckt sky130_fd_sc_hd__or3_4 A B C VGND VNB VPB VPWR X
.ends

* Black-box entry subcircuit for sky130_fd_sc_hd__a21bo_1 abstract view
.subckt sky130_fd_sc_hd__a21bo_1 A1 A2 B1_N VGND VNB VPB VPWR X
.ends

* Black-box entry subcircuit for sky130_fd_sc_hd__a211oi_1 abstract view
.subckt sky130_fd_sc_hd__a211oi_1 A1 A2 B1 C1 VGND VNB VPB VPWR Y
.ends

* Black-box entry subcircuit for sky130_fd_sc_hd__o21ai_1 abstract view
.subckt sky130_fd_sc_hd__o21ai_1 A1 A2 B1 VGND VNB VPB VPWR Y
.ends

* Black-box entry subcircuit for sky130_fd_sc_hd__xor2_2 abstract view
.subckt sky130_fd_sc_hd__xor2_2 A B VGND VNB VPB VPWR X
.ends

* Black-box entry subcircuit for sky130_fd_sc_hd__a211o_1 abstract view
.subckt sky130_fd_sc_hd__a211o_1 A1 A2 B1 C1 VGND VNB VPB VPWR X
.ends

* Black-box entry subcircuit for sky130_fd_sc_hd__buf_1 abstract view
.subckt sky130_fd_sc_hd__buf_1 A VGND VNB VPB VPWR X
.ends

* Black-box entry subcircuit for sky130_fd_sc_hd__nand4_1 abstract view
.subckt sky130_fd_sc_hd__nand4_1 A B C D VGND VNB VPB VPWR Y
.ends

* Black-box entry subcircuit for sky130_fd_sc_hd__o21a_1 abstract view
.subckt sky130_fd_sc_hd__o21a_1 A1 A2 B1 VGND VNB VPB VPWR X
.ends

* Black-box entry subcircuit for sky130_fd_sc_hd__o21ba_1 abstract view
.subckt sky130_fd_sc_hd__o21ba_1 A1 A2 B1_N VGND VNB VPB VPWR X
.ends

* Black-box entry subcircuit for sky130_fd_sc_hd__nand3_1 abstract view
.subckt sky130_fd_sc_hd__nand3_1 A B C VGND VNB VPB VPWR Y
.ends

* Black-box entry subcircuit for sky130_fd_sc_hd__o22a_1 abstract view
.subckt sky130_fd_sc_hd__o22a_1 A1 A2 B1 B2 VGND VNB VPB VPWR X
.ends

* Black-box entry subcircuit for sky130_fd_sc_hd__a21oi_4 abstract view
.subckt sky130_fd_sc_hd__a21oi_4 A1 A2 B1 VGND VNB VPB VPWR Y
.ends

* Black-box entry subcircuit for sky130_fd_sc_hd__conb_1 abstract view
.subckt sky130_fd_sc_hd__conb_1 VGND VNB VPB VPWR HI LO
.ends

* Black-box entry subcircuit for sky130_fd_sc_hd__o211a_1 abstract view
.subckt sky130_fd_sc_hd__o211a_1 A1 A2 B1 C1 VGND VNB VPB VPWR X
.ends

* Black-box entry subcircuit for sky130_fd_sc_hd__clkbuf_2 abstract view
.subckt sky130_fd_sc_hd__clkbuf_2 A VGND VNB VPB VPWR X
.ends

* Black-box entry subcircuit for sky130_fd_sc_hd__and4bb_1 abstract view
.subckt sky130_fd_sc_hd__and4bb_1 A_N B_N C D VGND VNB VPB VPWR X
.ends

* Black-box entry subcircuit for sky130_fd_sc_hd__or4_4 abstract view
.subckt sky130_fd_sc_hd__or4_4 A B C D VGND VNB VPB VPWR X
.ends

* Black-box entry subcircuit for sky130_fd_sc_hd__nand3b_1 abstract view
.subckt sky130_fd_sc_hd__nand3b_1 A_N B C VGND VNB VPB VPWR Y
.ends

* Black-box entry subcircuit for sky130_fd_sc_hd__clkbuf_1 abstract view
.subckt sky130_fd_sc_hd__clkbuf_1 A VGND VNB VPB VPWR X
.ends

* Black-box entry subcircuit for sky130_fd_sc_hd__o31ai_1 abstract view
.subckt sky130_fd_sc_hd__o31ai_1 A1 A2 A3 B1 VGND VNB VPB VPWR Y
.ends

* Black-box entry subcircuit for sky130_fd_sc_hd__o31ai_2 abstract view
.subckt sky130_fd_sc_hd__o31ai_2 A1 A2 A3 B1 VGND VNB VPB VPWR Y
.ends

* Black-box entry subcircuit for sky130_fd_sc_hd__nor2_2 abstract view
.subckt sky130_fd_sc_hd__nor2_2 A B VGND VNB VPB VPWR Y
.ends

* Black-box entry subcircuit for sky130_fd_sc_hd__o21bai_1 abstract view
.subckt sky130_fd_sc_hd__o21bai_1 A1 A2 B1_N VGND VNB VPB VPWR Y
.ends

* Black-box entry subcircuit for sky130_fd_sc_hd__nand2b_4 abstract view
.subckt sky130_fd_sc_hd__nand2b_4 A_N B VGND VNB VPB VPWR Y
.ends

.subckt mult8_2bits_1op_e16767 A[0] A[1] A[2] A[3] A[4] A[5] A[6] A[7] B[0] B[1] B[2]
+ B[3] B[4] B[5] B[6] B[7] P[0] P[10] P[11] P[12] P[13] P[14] P[15] P[1] P[2] P[3]
+ P[4] P[5] P[6] P[7] P[8] P[9] VGND VPWR
XTAP_TAPCELL_ROW_37_401 VGND VPWR sky130_fd_sc_hd__tapvpwrvgnd_1
XFILLER_52_29 VPWR VGND VPWR VGND sky130_ef_sc_hd__decap_12
XFILLER_22_177 VGND VGND VPWR VPWR sky130_fd_sc_hd__decap_6
XFILLER_45_225 VPWR VGND VPWR VGND sky130_ef_sc_hd__decap_12
X_501_ _136_ _137_ _141_ _142_ VGND VGND VPWR VPWR _145_ sky130_fd_sc_hd__a2bb2o_2
X_432_ _036_ _077_ VGND VGND VPWR VPWR _078_ sky130_fd_sc_hd__xnor2_1
XFILLER_13_111 VGND VGND VPWR VPWR sky130_fd_sc_hd__fill_1
XFILLER_26_41 VPWR VGND VPWR VGND sky130_ef_sc_hd__decap_12
XFILLER_26_85 VGND VGND VPWR VPWR sky130_fd_sc_hd__decap_8
Xrebuffer7 net52 VGND VGND VPWR VPWR net53 sky130_fd_sc_hd__dlygate4sd1_1
X_294_ net71 net43 VGND VGND VPWR VPWR _229_ sky130_fd_sc_hd__nand2_1
XFILLER_9_137 VPWR VGND VPWR VGND sky130_ef_sc_hd__decap_12
X_363_ _010_ _009_ _271_ VGND VGND VPWR VPWR _011_ sky130_fd_sc_hd__or3b_4
XFILLER_36_225 VGND VGND VPWR VPWR sky130_fd_sc_hd__fill_2
XFILLER_59_317 VPWR VGND VPWR VGND sky130_ef_sc_hd__decap_12
XFILLER_63_39 VPWR VGND VPWR VGND sky130_ef_sc_hd__decap_12
XFILLER_42_228 VPWR VGND VPWR VGND sky130_ef_sc_hd__decap_12
XFILLER_27_225 VGND VGND VPWR VPWR sky130_fd_sc_hd__decap_8
XFILLER_27_247 VGND VGND VPWR VPWR sky130_fd_sc_hd__fill_2
XFILLER_27_269 VGND VGND VPWR VPWR sky130_fd_sc_hd__decap_8
XFILLER_50_272 VPWR VGND VPWR VGND sky130_ef_sc_hd__decap_12
XTAP_TAPCELL_ROW_40_418 VGND VPWR sky130_fd_sc_hd__tapvpwrvgnd_1
XFILLER_2_357 VGND VGND VPWR VPWR sky130_fd_sc_hd__decap_6
XFILLER_12_65 VPWR VGND VPWR VGND sky130_ef_sc_hd__decap_12
XTAP_TAPCELL_ROW_5_173 VGND VPWR sky130_fd_sc_hd__tapvpwrvgnd_1
XFILLER_18_247 VGND VGND VPWR VPWR sky130_fd_sc_hd__decap_4
X_415_ _005_ _039_ _059_ VGND VGND VPWR VPWR _061_ sky130_fd_sc_hd__and3_1
XFILLER_33_206 VPWR VGND VPWR VGND sky130_ef_sc_hd__decap_12
X_346_ _276_ _277_ VGND VGND VPWR VPWR _278_ sky130_fd_sc_hd__nor2_1
XFILLER_49_361 VPWR VGND VPWR VGND sky130_ef_sc_hd__decap_12
XTAP_TAPCELL_ROW_19_275 VGND VPWR sky130_fd_sc_hd__tapvpwrvgnd_1
XTAP_TAPCELL_ROW_62_576 VGND VPWR sky130_fd_sc_hd__tapvpwrvgnd_1
XFILLER_20_401 VGND VGND VPWR VPWR sky130_fd_sc_hd__decap_6
XFILLER_59_169 VPWR VGND VPWR VGND sky130_ef_sc_hd__decap_12
XFILLER_59_125 VPWR VGND VPWR VGND sky130_ef_sc_hd__decap_12
XTAP_TAPCELL_ROW_2_154 VGND VPWR sky130_fd_sc_hd__tapvpwrvgnd_1
XTAP_TAPCELL_ROW_53_510 VGND VPWR sky130_fd_sc_hd__tapvpwrvgnd_1
XFILLER_30_209 VPWR VGND VPWR VGND sky130_ef_sc_hd__decap_12
XFILLER_15_217 VGND VGND VPWR VPWR sky130_fd_sc_hd__decap_6
XFILLER_23_261 VGND VGND VPWR VPWR sky130_fd_sc_hd__decap_6
XFILLER_7_405 VGND VGND VPWR VPWR sky130_fd_sc_hd__fill_2
XFILLER_23_53 VGND VGND VPWR VPWR sky130_fd_sc_hd__decap_3
XFILLER_38_309 VPWR VGND VPWR VGND sky130_ef_sc_hd__decap_12
XFILLER_2_165 VPWR VGND VPWR VGND sky130_ef_sc_hd__decap_12
XFILLER_2_121 VPWR VGND VPWR VGND sky130_ef_sc_hd__decap_12
XFILLER_48_83 VGND VGND VPWR VPWR sky130_fd_sc_hd__fill_1
XFILLER_0_57 VPWR VGND VPWR VGND sky130_ef_sc_hd__decap_12
X_329_ _248_ _260_ VGND VGND VPWR VPWR _262_ sky130_fd_sc_hd__xnor2_1
XFILLER_9_55 VGND VGND VPWR VPWR sky130_fd_sc_hd__fill_1
XFILLER_50_3 VPWR VGND VPWR VGND sky130_ef_sc_hd__decap_12
XFILLER_56_139 VGND VGND VPWR VPWR sky130_fd_sc_hd__fill_1
XFILLER_52_389 VPWR VGND VPWR VGND sky130_ef_sc_hd__decap_12
XFILLER_52_345 VPWR VGND VPWR VGND sky130_ef_sc_hd__decap_12
XFILLER_52_301 VGND VGND VPWR VPWR sky130_fd_sc_hd__decap_6
XFILLER_12_209 VPWR VGND VPWR VGND sky130_ef_sc_hd__decap_12
XFILLER_60_29 VPWR VGND VPWR VGND sky130_ef_sc_hd__decap_12
XFILLER_20_253 VPWR VGND VPWR VGND sky130_ef_sc_hd__decap_12
XFILLER_62_109 VPWR VGND VPWR VGND sky130_ef_sc_hd__decap_12
XFILLER_55_161 VGND VGND VPWR VPWR sky130_fd_sc_hd__decap_6
XFILLER_18_53 VPWR VGND VPWR VGND sky130_ef_sc_hd__decap_12
XFILLER_18_97 VPWR VGND VPWR VGND sky130_ef_sc_hd__decap_12
XFILLER_34_63 VPWR VGND VPWR VGND sky130_ef_sc_hd__decap_12
XFILLER_34_52 VGND VGND VPWR VPWR sky130_fd_sc_hd__decap_4
XFILLER_7_279 VGND VGND VPWR VPWR sky130_fd_sc_hd__fill_1
XFILLER_59_93 VPWR VGND VPWR VGND sky130_ef_sc_hd__decap_12
XFILLER_38_128 VPWR VGND VPWR VGND sky130_ef_sc_hd__decap_12
XFILLER_53_109 VGND VGND VPWR VPWR sky130_fd_sc_hd__decap_3
XFILLER_34_389 VPWR VGND VPWR VGND sky130_ef_sc_hd__decap_12
XFILLER_34_345 VPWR VGND VPWR VGND sky130_ef_sc_hd__decap_12
XFILLER_37_150 VPWR VGND VPWR VGND sky130_ef_sc_hd__decap_12
XFILLER_25_301 VGND VGND VPWR VPWR sky130_fd_sc_hd__fill_1
XTAP_TAPCELL_ROW_27_329 VGND VPWR sky130_fd_sc_hd__tapvpwrvgnd_1
XFILLER_52_164 VGND VGND VPWR VPWR sky130_fd_sc_hd__decap_6
XTAP_TAPCELL_ROW_35_384 VGND VPWR sky130_fd_sc_hd__tapvpwrvgnd_1
XTAP_TAPCELL_ROW_10_207 VGND VPWR sky130_fd_sc_hd__tapvpwrvgnd_1
XFILLER_20_65 VGND VGND VPWR VPWR sky130_fd_sc_hd__decap_6
XFILLER_20_98 VGND VGND VPWR VPWR sky130_fd_sc_hd__decap_3
XFILLER_45_51 VGND VGND VPWR VPWR sky130_fd_sc_hd__decap_4
XFILLER_43_164 VGND VGND VPWR VPWR sky130_fd_sc_hd__decap_4
XFILLER_35_109 VGND VGND VPWR VPWR sky130_fd_sc_hd__decap_3
XFILLER_28_194 VGND VGND VPWR VPWR sky130_fd_sc_hd__fill_2
XFILLER_16_301 VGND VGND VPWR VPWR sky130_fd_sc_hd__decap_6
XFILLER_16_345 VPWR VGND VPWR VGND sky130_ef_sc_hd__decap_12
XFILLER_16_389 VPWR VGND VPWR VGND sky130_ef_sc_hd__decap_12
XFILLER_31_337 VPWR VGND VPWR VGND sky130_ef_sc_hd__decap_12
XFILLER_3_293 VPWR VGND VPWR VGND sky130_ef_sc_hd__decap_12
Xrebuffer17 net44 VGND VGND VPWR VPWR net63 sky130_fd_sc_hd__dlygate4sd1_1
XFILLER_13_3 VPWR VGND VPWR VGND sky130_ef_sc_hd__decap_12
XFILLER_34_197 VPWR VGND VPWR VGND sky130_ef_sc_hd__decap_12
XFILLER_34_153 VPWR VGND VPWR VGND sky130_ef_sc_hd__decap_12
XTAP_TAPCELL_ROW_32_365 VGND VPWR sky130_fd_sc_hd__tapvpwrvgnd_1
XFILLER_57_223 VGND VGND VPWR VPWR sky130_fd_sc_hd__fill_1
XFILLER_40_178 VPWR VGND VPWR VGND sky130_ef_sc_hd__decap_12
XFILLER_31_42 VGND VGND VPWR VPWR sky130_fd_sc_hd__decap_3
XFILLER_31_20 VGND VGND VPWR VPWR sky130_fd_sc_hd__decap_4
XFILLER_13_337 VPWR VGND VPWR VGND sky130_ef_sc_hd__decap_12
XFILLER_25_186 VPWR VGND VPWR VGND sky130_ef_sc_hd__decap_12
Xoutput20 net20 VGND VGND VPWR VPWR P[13] sky130_fd_sc_hd__buf_6
Xoutput31 net31 VGND VGND VPWR VPWR P[9] sky130_fd_sc_hd__buf_6
XFILLER_63_237 VPWR VGND VPWR VGND sky130_ef_sc_hd__decap_12
XFILLER_56_83 VGND VGND VPWR VPWR sky130_fd_sc_hd__fill_1
XFILLER_48_256 VPWR VGND VPWR VGND sky130_ef_sc_hd__decap_12
X_577_ _197_ _192_ _208_ _217_ _193_ VGND VGND VPWR VPWR _218_ sky130_fd_sc_hd__o2111a_1
XFILLER_16_153 VGND VGND VPWR VPWR sky130_fd_sc_hd__decap_8
XFILLER_16_197 VPWR VGND VPWR VGND sky130_ef_sc_hd__decap_12
XFILLER_8_363 VGND VGND VPWR VPWR sky130_fd_sc_hd__fill_1
XFILLER_39_223 VGND VGND VPWR VPWR sky130_fd_sc_hd__fill_1
XTAP_TAPCELL_ROW_37_402 VGND VPWR sky130_fd_sc_hd__tapvpwrvgnd_1
XFILLER_10_307 VGND VGND VPWR VPWR sky130_fd_sc_hd__fill_1
X_500_ _143_ VGND VGND VPWR VPWR _144_ sky130_fd_sc_hd__inv_2
XFILLER_53_281 VPWR VGND VPWR VGND sky130_ef_sc_hd__decap_12
XFILLER_45_237 VPWR VGND VPWR VGND sky130_ef_sc_hd__decap_12
XTAP_TAPCELL_ROW_43_438 VGND VPWR sky130_fd_sc_hd__tapvpwrvgnd_1
X_431_ _034_ _075_ VGND VGND VPWR VPWR _077_ sky130_fd_sc_hd__xnor2_1
XFILLER_9_105 VGND VGND VPWR VPWR sky130_fd_sc_hd__decap_6
XFILLER_13_167 VGND VGND VPWR VPWR sky130_fd_sc_hd__fill_1
X_362_ _000_ _001_ _008_ VGND VGND VPWR VPWR _010_ sky130_fd_sc_hd__a21oi_1
XFILLER_26_53 VPWR VGND VPWR VGND sky130_ef_sc_hd__decap_12
XFILLER_42_85 VGND VGND VPWR VPWR sky130_fd_sc_hd__decap_8
XFILLER_42_41 VPWR VGND VPWR VGND sky130_ef_sc_hd__decap_12
Xrebuffer8 net38 VGND VGND VPWR VPWR net54 sky130_fd_sc_hd__dlymetal6s2s_1
XFILLER_9_149 VPWR VGND VPWR VGND sky130_ef_sc_hd__decap_12
X_293_ net32 net36 VGND VGND VPWR VPWR _228_ sky130_fd_sc_hd__nand2_1
XFILLER_3_57 VPWR VGND VPWR VGND sky130_ef_sc_hd__decap_12
XTAP_TAPCELL_ROW_8_193 VGND VPWR sky130_fd_sc_hd__tapvpwrvgnd_1
XFILLER_59_329 VGND VGND VPWR VPWR sky130_fd_sc_hd__decap_6
XFILLER_50_240 VPWR VGND VPWR VGND sky130_ef_sc_hd__decap_12
XFILLER_35_281 VPWR VGND VPWR VGND sky130_ef_sc_hd__decap_12
XPHY_EDGE_ROW_19_Left_84 VGND VGND VPWR VPWR sky130_fd_sc_hd__decap_3
XFILLER_27_259 VGND VGND VPWR VPWR sky130_fd_sc_hd__decap_4
XFILLER_50_295 VGND VGND VPWR VPWR sky130_fd_sc_hd__decap_6
XTAP_TAPCELL_ROW_40_419 VGND VPWR sky130_fd_sc_hd__tapvpwrvgnd_1
XFILLER_12_77 VGND VGND VPWR VPWR sky130_fd_sc_hd__decap_6
XTAP_TAPCELL_ROW_56_530 VGND VPWR sky130_fd_sc_hd__tapvpwrvgnd_1
XFILLER_33_218 VGND VGND VPWR VPWR sky130_fd_sc_hd__decap_6
XTAP_TAPCELL_ROW_5_174 VGND VPWR sky130_fd_sc_hd__tapvpwrvgnd_1
XFILLER_53_51 VGND VGND VPWR VPWR sky130_fd_sc_hd__decap_4
X_414_ _005_ _039_ _059_ VGND VGND VPWR VPWR _060_ sky130_fd_sc_hd__a21oi_1
X_345_ _274_ _275_ _272_ VGND VGND VPWR VPWR _277_ sky130_fd_sc_hd__a21oi_1
XFILLER_49_373 VPWR VGND VPWR VGND sky130_ef_sc_hd__decap_12
XFILLER_1_391 VGND VGND VPWR VPWR sky130_fd_sc_hd__fill_1
XFILLER_64_365 VPWR VGND VPWR VGND sky130_ef_sc_hd__decap_12
XFILLER_17_281 VPWR VGND VPWR VGND sky130_ef_sc_hd__decap_12
XTAP_TAPCELL_ROW_19_276 VGND VPWR sky130_fd_sc_hd__tapvpwrvgnd_1
XTAP_TAPCELL_ROW_62_577 VGND VPWR sky130_fd_sc_hd__tapvpwrvgnd_1
XFILLER_59_137 VPWR VGND VPWR VGND sky130_ef_sc_hd__decap_12
XFILLER_58_29 VPWR VGND VPWR VGND sky130_ef_sc_hd__decap_12
XPHY_EDGE_ROW_12_Right_12 VGND VGND VPWR VPWR sky130_fd_sc_hd__decap_3
XTAP_TAPCELL_ROW_2_155 VGND VPWR sky130_fd_sc_hd__tapvpwrvgnd_1
XPHY_EDGE_ROW_21_Right_21 VGND VGND VPWR VPWR sky130_fd_sc_hd__decap_3
XTAP_TAPCELL_ROW_53_511 VGND VPWR sky130_fd_sc_hd__tapvpwrvgnd_1
XPHY_EDGE_ROW_4_Left_69 VGND VGND VPWR VPWR sky130_fd_sc_hd__decap_3
XFILLER_23_273 VGND VGND VPWR VPWR sky130_fd_sc_hd__decap_6
XPHY_EDGE_ROW_30_Right_30 VGND VGND VPWR VPWR sky130_fd_sc_hd__decap_3
XFILLER_2_177 VPWR VGND VPWR VGND sky130_ef_sc_hd__decap_12
XFILLER_2_133 VGND VGND VPWR VPWR sky130_fd_sc_hd__decap_6
XFILLER_61_335 VGND VGND VPWR VPWR sky130_fd_sc_hd__fill_1
XFILLER_46_365 VPWR VGND VPWR VGND sky130_ef_sc_hd__decap_12
XFILLER_46_321 VPWR VGND VPWR VGND sky130_ef_sc_hd__decap_12
XFILLER_0_69 VPWR VGND VPWR VGND sky130_ef_sc_hd__decap_12
X_328_ net45 net13 _260_ VGND VGND VPWR VPWR _261_ sky130_fd_sc_hd__and3_1
XFILLER_14_251 VGND VGND VPWR VPWR sky130_fd_sc_hd__fill_1
XFILLER_43_3 VPWR VGND VPWR VGND sky130_ef_sc_hd__decap_12
XFILLER_49_181 VPWR VGND VPWR VGND sky130_ef_sc_hd__decap_12
XFILLER_52_357 VGND VGND VPWR VPWR sky130_fd_sc_hd__decap_6
XFILLER_20_265 VPWR VGND VPWR VGND sky130_ef_sc_hd__decap_12
XFILLER_47_118 VPWR VGND VPWR VGND sky130_ef_sc_hd__decap_12
XFILLER_28_365 VPWR VGND VPWR VGND sky130_ef_sc_hd__decap_12
XFILLER_28_321 VPWR VGND VPWR VGND sky130_ef_sc_hd__decap_12
XFILLER_18_65 VGND VGND VPWR VPWR sky130_fd_sc_hd__decap_8
XFILLER_50_41 VPWR VGND VPWR VGND sky130_ef_sc_hd__decap_12
XFILLER_34_75 VGND VGND VPWR VPWR sky130_fd_sc_hd__decap_8
XFILLER_7_225 VPWR VGND VPWR VGND sky130_ef_sc_hd__decap_12
XFILLER_50_85 VGND VGND VPWR VPWR sky130_fd_sc_hd__decap_8
XFILLER_46_162 VPWR VGND VPWR VGND sky130_ef_sc_hd__decap_12
XFILLER_34_357 VGND VGND VPWR VPWR sky130_fd_sc_hd__decap_6
XFILLER_57_405 VGND VGND VPWR VPWR sky130_fd_sc_hd__fill_2
XFILLER_52_121 VPWR VGND VPWR VGND sky130_ef_sc_hd__decap_12
XFILLER_37_162 VGND VGND VPWR VPWR sky130_fd_sc_hd__decap_6
XFILLER_52_176 VGND VGND VPWR VPWR sky130_fd_sc_hd__decap_8
XTAP_TAPCELL_ROW_35_385 VGND VPWR sky130_fd_sc_hd__tapvpwrvgnd_1
XTAP_TAPCELL_ROW_10_208 VGND VPWR sky130_fd_sc_hd__tapvpwrvgnd_1
XFILLER_29_31 VPWR VGND VPWR VGND sky130_ef_sc_hd__decap_12
XFILLER_43_187 VGND VGND VPWR VPWR sky130_fd_sc_hd__fill_1
XFILLER_31_349 VPWR VGND VPWR VGND sky130_ef_sc_hd__decap_12
XFILLER_31_305 VPWR VGND VPWR VGND sky130_ef_sc_hd__decap_12
XFILLER_16_357 VGND VGND VPWR VPWR sky130_fd_sc_hd__decap_6
XFILLER_61_51 VGND VGND VPWR VPWR sky130_fd_sc_hd__decap_4
XPHY_EDGE_ROW_7_Left_72 VGND VGND VPWR VPWR sky130_fd_sc_hd__decap_3
XFILLER_3_261 VPWR VGND VPWR VGND sky130_ef_sc_hd__decap_12
XFILLER_34_110 VGND VGND VPWR VPWR sky130_fd_sc_hd__decap_8
Xrebuffer18 _249_ VGND VGND VPWR VPWR net64 sky130_fd_sc_hd__dlygate4sd1_1
XFILLER_34_165 VPWR VGND VPWR VGND sky130_ef_sc_hd__decap_12
XTAP_TAPCELL_ROW_32_366 VGND VPWR sky130_fd_sc_hd__tapvpwrvgnd_1
XPHY_EDGE_ROW_6_Right_6 VGND VGND VPWR VPWR sky130_fd_sc_hd__decap_3
XFILLER_57_279 VGND VGND VPWR VPWR sky130_fd_sc_hd__fill_1
XFILLER_13_305 VPWR VGND VPWR VGND sky130_ef_sc_hd__decap_12
XFILLER_13_349 VPWR VGND VPWR VGND sky130_ef_sc_hd__decap_12
XFILLER_15_55 VGND VGND VPWR VPWR sky130_fd_sc_hd__fill_1
XTAP_TAPCELL_ROW_23_300 VGND VPWR sky130_fd_sc_hd__tapvpwrvgnd_1
XFILLER_25_198 VGND VGND VPWR VPWR sky130_fd_sc_hd__decap_8
XFILLER_31_54 VGND VGND VPWR VPWR sky130_fd_sc_hd__fill_2
XFILLER_21_393 VPWR VGND VPWR VGND sky130_ef_sc_hd__decap_12
Xoutput21 net21 VGND VGND VPWR VPWR P[14] sky130_fd_sc_hd__buf_6
XPHY_EDGE_ROW_33_Left_98 VGND VGND VPWR VPWR sky130_fd_sc_hd__decap_3
XFILLER_0_231 VPWR VGND VPWR VGND sky130_ef_sc_hd__decap_12
XFILLER_0_253 VPWR VGND VPWR VGND sky130_ef_sc_hd__decap_12
XFILLER_63_249 VPWR VGND VPWR VGND sky130_ef_sc_hd__decap_12
XFILLER_63_205 VPWR VGND VPWR VGND sky130_ef_sc_hd__decap_12
XFILLER_48_268 VGND VGND VPWR VPWR sky130_fd_sc_hd__decap_8
XFILLER_16_121 VPWR VGND VPWR VGND sky130_ef_sc_hd__decap_12
XPHY_EDGE_ROW_59_Right_59 VGND VGND VPWR VPWR sky130_fd_sc_hd__decap_3
X_576_ _215_ _216_ VGND VGND VPWR VPWR _217_ sky130_fd_sc_hd__and2b_1
XFILLER_31_113 VPWR VGND VPWR VGND sky130_ef_sc_hd__decap_12
XFILLER_39_279 VGND VGND VPWR VPWR sky130_fd_sc_hd__fill_1
XFILLER_22_102 VPWR VGND VPWR VGND sky130_ef_sc_hd__decap_12
XFILLER_45_249 VPWR VGND VPWR VGND sky130_ef_sc_hd__decap_12
XFILLER_45_205 VPWR VGND VPWR VGND sky130_ef_sc_hd__decap_12
XFILLER_53_293 VPWR VGND VPWR VGND sky130_ef_sc_hd__decap_12
XTAP_TAPCELL_ROW_43_439 VGND VPWR sky130_fd_sc_hd__tapvpwrvgnd_1
XFILLER_42_53 VPWR VGND VPWR VGND sky130_ef_sc_hd__decap_12
X_430_ _034_ _075_ VGND VGND VPWR VPWR _076_ sky130_fd_sc_hd__or2_1
X_292_ _225_ _227_ VGND VGND VPWR VPWR net23 sky130_fd_sc_hd__and2_1
XFILLER_13_113 VPWR VGND VPWR VGND sky130_ef_sc_hd__decap_12
X_361_ _000_ _008_ _001_ VGND VGND VPWR VPWR _009_ sky130_fd_sc_hd__and3_1
XFILLER_26_65 VPWR VGND VPWR VGND sky130_ef_sc_hd__decap_12
XTAP_TAPCELL_ROW_51_494 VGND VPWR sky130_fd_sc_hd__tapvpwrvgnd_1
Xrebuffer9 net38 VGND VGND VPWR VPWR net55 sky130_fd_sc_hd__dlygate4sd1_1
XFILLER_3_69 VPWR VGND VPWR VGND sky130_ef_sc_hd__decap_12
XTAP_TAPCELL_ROW_8_194 VGND VPWR sky130_fd_sc_hd__tapvpwrvgnd_1
XTAP_TAPCELL_ROW_59_550 VGND VPWR sky130_fd_sc_hd__tapvpwrvgnd_1
XFILLER_36_205 VGND VGND VPWR VPWR sky130_fd_sc_hd__fill_1
X_559_ net16 net7 _198_ _156_ VGND VGND VPWR VPWR _200_ sky130_fd_sc_hd__a31o_1
XFILLER_27_205 VGND VGND VPWR VPWR sky130_fd_sc_hd__decap_8
XFILLER_35_293 VPWR VGND VPWR VGND sky130_ef_sc_hd__decap_12
XFILLER_6_109 VPWR VGND VPWR VGND sky130_ef_sc_hd__decap_12
XFILLER_58_363 VGND VGND VPWR VPWR sky130_fd_sc_hd__fill_1
XTAP_TAPCELL_ROW_56_531 VGND VPWR sky130_fd_sc_hd__tapvpwrvgnd_1
X_413_ net37 net15 VGND VGND VPWR VPWR _059_ sky130_fd_sc_hd__and2_1
XTAP_TAPCELL_ROW_5_175 VGND VPWR sky130_fd_sc_hd__tapvpwrvgnd_1
X_344_ _272_ _274_ _275_ VGND VGND VPWR VPWR _276_ sky130_fd_sc_hd__and3_1
XFILLER_49_385 VGND VGND VPWR VPWR sky130_fd_sc_hd__decap_6
XFILLER_64_377 VPWR VGND VPWR VGND sky130_ef_sc_hd__decap_12
XFILLER_17_293 VPWR VGND VPWR VGND sky130_ef_sc_hd__decap_12
XPHY_EDGE_ROW_20_Left_85 VGND VGND VPWR VPWR sky130_fd_sc_hd__decap_3
XFILLER_59_149 VPWR VGND VPWR VGND sky130_ef_sc_hd__decap_12
XFILLER_59_105 VGND VGND VPWR VPWR sky130_fd_sc_hd__decap_6
XFILLER_55_311 VPWR VGND VPWR VGND sky130_ef_sc_hd__decap_12
XTAP_TAPCELL_ROW_53_512 VGND VPWR sky130_fd_sc_hd__tapvpwrvgnd_1
XTAP_TAPCELL_ROW_2_156 VGND VPWR sky130_fd_sc_hd__tapvpwrvgnd_1
XFILLER_3_3 VPWR VGND VPWR VGND sky130_ef_sc_hd__decap_12
XFILLER_48_85 VPWR VGND VPWR VGND sky130_ef_sc_hd__decap_12
XFILLER_48_41 VPWR VGND VPWR VGND sky130_ef_sc_hd__decap_12
XFILLER_46_333 VPWR VGND VPWR VGND sky130_ef_sc_hd__decap_12
XFILLER_2_189 VGND VGND VPWR VPWR sky130_fd_sc_hd__decap_6
XFILLER_0_15 VPWR VGND VPWR VGND sky130_ef_sc_hd__decap_12
XFILLER_46_377 VPWR VGND VPWR VGND sky130_ef_sc_hd__decap_12
XFILLER_9_57 VPWR VGND VPWR VGND sky130_ef_sc_hd__decap_12
X_327_ _245_ _259_ VGND VGND VPWR VPWR _260_ sky130_fd_sc_hd__xnor2_2
XFILLER_64_141 VPWR VGND VPWR VGND sky130_ef_sc_hd__decap_12
XFILLER_49_193 VPWR VGND VPWR VGND sky130_ef_sc_hd__decap_12
XFILLER_20_277 VPWR VGND VPWR VGND sky130_ef_sc_hd__decap_12
XFILLER_28_333 VPWR VGND VPWR VGND sky130_ef_sc_hd__decap_12
XFILLER_28_377 VPWR VGND VPWR VGND sky130_ef_sc_hd__decap_12
XFILLER_51_391 VGND VGND VPWR VPWR sky130_fd_sc_hd__fill_1
XFILLER_50_53 VPWR VGND VPWR VGND sky130_ef_sc_hd__decap_12
XFILLER_34_98 VPWR VGND VPWR VGND sky130_ef_sc_hd__decap_12
XFILLER_7_237 VPWR VGND VPWR VGND sky130_ef_sc_hd__decap_12
XTAP_TAPCELL_ROW_13_228 VGND VPWR sky130_fd_sc_hd__tapvpwrvgnd_1
XFILLER_59_51 VGND VGND VPWR VPWR sky130_fd_sc_hd__decap_4
XFILLER_46_174 VPWR VGND VPWR VGND sky130_ef_sc_hd__decap_12
XFILLER_61_111 VGND VGND VPWR VPWR sky130_fd_sc_hd__fill_1
XFILLER_52_133 VGND VGND VPWR VPWR sky130_fd_sc_hd__decap_6
XFILLER_40_328 VPWR VGND VPWR VGND sky130_ef_sc_hd__decap_12
XTAP_TAPCELL_ROW_35_386 VGND VPWR sky130_fd_sc_hd__tapvpwrvgnd_1
XFILLER_33_391 VGND VGND VPWR VPWR sky130_fd_sc_hd__fill_1
XTAP_TAPCELL_ROW_10_209 VGND VPWR sky130_fd_sc_hd__tapvpwrvgnd_1
XPHY_EDGE_ROW_42_Left_107 VGND VGND VPWR VPWR sky130_fd_sc_hd__decap_3
XFILLER_20_78 VGND VGND VPWR VPWR sky130_fd_sc_hd__decap_6
XFILLER_43_100 VPWR VGND VPWR VGND sky130_ef_sc_hd__decap_12
XFILLER_29_43 VPWR VGND VPWR VGND sky130_ef_sc_hd__decap_12
XFILLER_28_141 VPWR VGND VPWR VGND sky130_ef_sc_hd__decap_12
XPHY_EDGE_ROW_51_Left_116 VGND VGND VPWR VPWR sky130_fd_sc_hd__decap_3
XFILLER_31_317 VPWR VGND VPWR VGND sky130_ef_sc_hd__decap_12
XTAP_TAPCELL_ROW_26_320 VGND VPWR sky130_fd_sc_hd__tapvpwrvgnd_1
XPHY_EDGE_ROW_60_Left_125 VGND VGND VPWR VPWR sky130_fd_sc_hd__decap_3
XFILLER_3_273 VGND VGND VPWR VPWR sky130_fd_sc_hd__decap_6
Xrebuffer19 _240_ VGND VGND VPWR VPWR net65 sky130_fd_sc_hd__dlymetal6s2s_1
XFILLER_19_152 VPWR VGND VPWR VGND sky130_ef_sc_hd__decap_12
XFILLER_34_177 VPWR VGND VPWR VGND sky130_ef_sc_hd__decap_12
XTAP_TAPCELL_ROW_32_367 VGND VPWR sky130_fd_sc_hd__tapvpwrvgnd_1
XFILLER_15_391 VGND VGND VPWR VPWR sky130_fd_sc_hd__fill_1
XFILLER_57_225 VPWR VGND VPWR VGND sky130_ef_sc_hd__decap_12
XFILLER_13_317 VPWR VGND VPWR VGND sky130_ef_sc_hd__decap_12
XTAP_TAPCELL_ROW_23_301 VGND VPWR sky130_fd_sc_hd__tapvpwrvgnd_1
XFILLER_25_177 VGND VGND VPWR VPWR sky130_fd_sc_hd__fill_2
XFILLER_21_361 VPWR VGND VPWR VGND sky130_ef_sc_hd__decap_12
Xoutput22 net22 VGND VGND VPWR VPWR P[15] sky130_fd_sc_hd__buf_8
XFILLER_48_214 VPWR VGND VPWR VGND sky130_ef_sc_hd__decap_12
XFILLER_0_221 VGND VGND VPWR VPWR sky130_fd_sc_hd__decap_3
XFILLER_0_243 VGND VGND VPWR VPWR sky130_fd_sc_hd__decap_8
XFILLER_0_265 VPWR VGND VPWR VGND sky130_ef_sc_hd__decap_12
XFILLER_63_217 VGND VGND VPWR VPWR sky130_fd_sc_hd__decap_6
X_575_ _205_ _211_ _213_ _214_ VGND VGND VPWR VPWR _216_ sky130_fd_sc_hd__or4_1
XFILLER_56_85 VPWR VGND VPWR VGND sky130_ef_sc_hd__decap_12
XFILLER_56_41 VPWR VGND VPWR VGND sky130_ef_sc_hd__decap_12
XTAP_TAPCELL_ROW_46_459 VGND VPWR sky130_fd_sc_hd__tapvpwrvgnd_1
XFILLER_16_133 VGND VGND VPWR VPWR sky130_fd_sc_hd__decap_6
XFILLER_31_125 VPWR VGND VPWR VGND sky130_ef_sc_hd__decap_12
XFILLER_8_321 VPWR VGND VPWR VGND sky130_ef_sc_hd__decap_12
XFILLER_8_365 VPWR VGND VPWR VGND sky130_ef_sc_hd__decap_12
XFILLER_39_225 VPWR VGND VPWR VGND sky130_ef_sc_hd__decap_12
XFILLER_50_401 VGND VGND VPWR VPWR sky130_fd_sc_hd__decap_6
XFILLER_22_114 VGND VGND VPWR VPWR sky130_fd_sc_hd__decap_8