*SPEF "ieee 1481-1999"
*DESIGN "SARSA_RUIDO_VENTAJA_e5"
*DATE "13:54:56 Tuesday September 16, 2025"
*VENDOR "The OpenROAD Project"
*PROGRAM "OpenROAD"
*VERSION "edf00dff99f6c40d67a30c0e22a8191c5d2ed9d6"
*DESIGN_FLOW "NAME_SCOPE LOCAL" "PIN_CAP NONE"
*DIVIDER /
*DELIMITER :
*BUS_DELIMITER []
*T_UNIT 1 NS
*C_UNIT 1 PF
*R_UNIT 1 OHM
*L_UNIT 1 HENRY

*NAME_MAP
*1 A[0]
*2 A[1]
*3 B[0]
*4 B[1]
*5 P[0]
*6 P[1]
*7 P[2]
*8 net7
*11 net1
*12 net2
*13 net3
*14 net4
*15 net5
*16 net6
*17 pp1
*18 FILLER_0_15
*19 FILLER_0_27
*20 FILLER_0_29
*21 FILLER_0_3
*22 FILLER_0_41
*23 FILLER_0_53
*24 FILLER_0_57
*25 FILLER_0_69
*26 FILLER_1_15
*27 FILLER_1_27
*28 FILLER_1_3
*29 FILLER_1_39
*30 FILLER_1_51
*31 FILLER_1_55
*32 FILLER_1_57
*33 FILLER_1_69
*34 FILLER_2_15
*35 FILLER_2_27
*36 FILLER_2_29
*37 FILLER_2_3
*38 FILLER_2_41
*39 FILLER_2_53
*40 FILLER_2_65
*41 FILLER_2_77
*42 FILLER_3_15
*43 FILLER_3_27
*44 FILLER_3_3
*45 FILLER_3_39
*46 FILLER_3_51
*47 FILLER_3_55
*48 FILLER_3_57
*49 FILLER_3_69
*50 FILLER_4_18
*51 FILLER_4_26
*52 FILLER_4_29
*53 FILLER_4_34
*54 FILLER_4_46
*55 FILLER_4_58
*56 FILLER_4_6
*57 FILLER_4_70
*58 FILLER_4_76
*59 FILLER_5_25
*60 FILLER_5_37
*61 FILLER_5_49
*62 FILLER_5_55
*63 FILLER_5_57
*64 FILLER_5_69
*65 FILLER_6_18
*66 FILLER_6_26
*67 FILLER_6_29
*68 FILLER_6_41
*69 FILLER_6_53
*70 FILLER_6_6
*71 FILLER_6_65
*72 FILLER_6_77
*73 FILLER_7_18
*74 FILLER_7_30
*75 FILLER_7_42
*76 FILLER_7_54
*77 FILLER_7_57
*78 FILLER_7_6
*79 FILLER_7_69
*80 FILLER_8_15
*81 FILLER_8_27
*82 FILLER_8_29
*83 FILLER_8_3
*84 FILLER_8_41
*85 FILLER_8_53
*86 FILLER_8_65
*87 FILLER_8_77
*88 FILLER_9_15
*89 FILLER_9_27
*90 FILLER_9_29
*91 FILLER_9_3
*92 FILLER_9_41
*93 FILLER_9_53
*94 FILLER_9_57
*95 FILLER_9_69
*96 PHY_EDGE_ROW_0_Left_10
*97 PHY_EDGE_ROW_0_Right_0
*98 PHY_EDGE_ROW_1_Left_11
*99 PHY_EDGE_ROW_1_Right_1
*100 PHY_EDGE_ROW_2_Left_12
*101 PHY_EDGE_ROW_2_Right_2
*102 PHY_EDGE_ROW_3_Left_13
*103 PHY_EDGE_ROW_3_Right_3
*104 PHY_EDGE_ROW_4_Left_14
*105 PHY_EDGE_ROW_4_Right_4
*106 PHY_EDGE_ROW_5_Left_15
*107 PHY_EDGE_ROW_5_Right_5
*108 PHY_EDGE_ROW_6_Left_16
*109 PHY_EDGE_ROW_6_Right_6
*110 PHY_EDGE_ROW_7_Left_17
*111 PHY_EDGE_ROW_7_Right_7
*112 PHY_EDGE_ROW_8_Left_18
*113 PHY_EDGE_ROW_8_Right_8
*114 PHY_EDGE_ROW_9_Left_19
*115 PHY_EDGE_ROW_9_Right_9
*116 SARSA_RUIDO_VENTAJA_e5_7
*117 TAP_TAPCELL_ROW_0_20
*118 TAP_TAPCELL_ROW_0_21
*119 TAP_TAPCELL_ROW_1_22
*120 TAP_TAPCELL_ROW_2_23
*121 TAP_TAPCELL_ROW_3_24
*122 TAP_TAPCELL_ROW_4_25
*123 TAP_TAPCELL_ROW_5_26
*124 TAP_TAPCELL_ROW_6_27
*125 TAP_TAPCELL_ROW_7_28
*126 TAP_TAPCELL_ROW_8_29
*127 TAP_TAPCELL_ROW_9_30
*128 TAP_TAPCELL_ROW_9_31
*129 _0_
*130 _1_
*131 _2_
*132 _4_
*133 input1
*134 input2
*135 input3
*136 output4
*137 output5
*138 output6

*PORTS
A[0] I
A[1] I
B[0] I
B[1] I
P[0] O
P[1] O
P[2] O
P[3] O

*D_NET *1 0.000532809
*CONN
*P A[0] I
*I *133:A I *D sky130_fd_sc_hd__clkbuf_1
*CAP
1 A[0] 0.000255159
2 *133:A 0.000255159
3 *133:A *134:A 2.24901e-05
*RES
1 A[0] *133:A 6.8343 
*END

*D_NET *2 0.000487581
*CONN
*P A[1] I
*I *134:A I *D sky130_fd_sc_hd__buf_1
*CAP
1 A[1] 0.000218292
2 *134:A 0.000218292
3 *134:A P[2] 2.85068e-05
4 *133:A *134:A 2.24901e-05
*RES
1 A[1] *134:A 5.35677 
*END

*D_NET *4 0.000641155
*CONN
*P B[1] I
*I *135:A I *D sky130_fd_sc_hd__buf_1
*CAP
1 B[1] 0.000305759
2 *135:A 0.000305759
3 *135:A P[2] 2.96366e-05
*RES
1 B[1] *135:A 7.8543 
*END

*D_NET *5 0.000584515
*CONN
*P P[0] O
*I *136:X O *D sky130_fd_sc_hd__buf_2
*CAP
1 P[0] 0.000245984
2 *136:X 0.000245984
3 P[0] P[1] 9.25475e-05
*RES
1 *136:X P[0] 5.92503 
*END

*D_NET *6 0.000534416
*CONN
*P P[1] O
*I *137:X O *D sky130_fd_sc_hd__buf_2
*CAP
1 P[1] 0.000178266
2 *137:X 0.000178266
3 P[1] P[3] 8.53361e-05
4 P[0] P[1] 9.25475e-05
*RES
1 *137:X P[1] 5.41503 
*END

*D_NET *7 0.000661148
*CONN
*P P[2] O
*I *138:X O *D sky130_fd_sc_hd__buf_2
*CAP
1 P[2] 0.000301502
2 *138:X 0.000301502
3 *134:A P[2] 2.85068e-05
4 *135:A P[2] 2.96366e-05
*RES
1 *138:X P[2] 7.1793 
*END

*D_NET *8 0.000469235
*CONN
*P P[3] O
*I *116:LO O *D sky130_fd_sc_hd__conb_1
*CAP
1 P[3] 0.000191949
2 *116:LO 0.000191949
3 P[1] P[3] 8.53361e-05
*RES
1 *116:LO P[3] 5.35677 
*END

*D_NET *11 0.00158426
*CONN
*I *131:B I *D sky130_fd_sc_hd__and2b_1
*I *133:X O *D sky130_fd_sc_hd__clkbuf_1
*CAP
1 *131:B 0.000792131
2 *133:X 0.000792131
*RES
1 *133:X *131:B 17.1 
*END

*D_NET *12 0.000802395
*CONN
*I *130:A I *D sky130_fd_sc_hd__xor2_1
*I *129:A I *D sky130_fd_sc_hd__and2_1
*I *134:X O *D sky130_fd_sc_hd__buf_1
*CAP
1 *130:A 6.36231e-05
2 *129:A 0
3 *134:X 0.000258023
4 *12:12 0.000321646
5 *130:A *131:A_N 2.30292e-05
6 *130:A *13:16 0.00012657
7 *12:12 *13:12 9.50342e-06
*RES
1 *134:X *12:12 8.81 
2 *12:12 *129:A 1.6 
3 *12:12 *130:A 3.085 
*END

*D_NET *13 0.00122579
*CONN
*I *129:B I *D sky130_fd_sc_hd__and2_1
*I *130:B I *D sky130_fd_sc_hd__xor2_1
*I *131:A_N I *D sky130_fd_sc_hd__and2b_1
*I *135:X O *D sky130_fd_sc_hd__buf_1
*CAP
1 *129:B 0
2 *130:B 0
3 *131:A_N 0.000166965
4 *135:X 0.000255929
5 *13:16 0.000257629
6 *13:12 0.000346594
7 *131:A_N *137:A 3.95724e-05
8 *130:A *131:A_N 2.30292e-05
9 *130:A *13:16 0.00012657
10 *12:12 *13:12 9.50342e-06
*RES
1 *135:X *13:12 8.72 
2 *13:12 *13:16 1.845 
3 *13:16 *131:A_N 4.495 
4 *13:16 *130:B 1.6 
5 *13:12 *129:B 1.6 
*END

*D_NET *14 0.00261432
*CONN
*I *136:A I *D sky130_fd_sc_hd__buf_2
*I *132:X O *D sky130_fd_sc_hd__clkbuf_1
*CAP
1 *136:A 0.00130716
2 *132:X 0.00130716
*RES
1 *132:X *136:A 19.205 
*END

*D_NET *15 0.00283327
*CONN
*I *137:A I *D sky130_fd_sc_hd__buf_2
*I *130:X O *D sky130_fd_sc_hd__xor2_1
*CAP
1 *137:A 0.00133911
2 *130:X 0.00133911
3 *137:A *132:A 0.000115474
4 *131:A_N *137:A 3.95724e-05
*RES
1 *130:X *137:A 24.02 
*END

*D_NET *16 5.97061e-05
*CONN
*I *138:A I *D sky130_fd_sc_hd__buf_2
*I *129:X O *D sky130_fd_sc_hd__and2_1
*CAP
1 *138:A 2.9853e-05
2 *129:X 2.9853e-05
*RES
1 *129:X *138:A 3.65 
*END

*D_NET *17 0.00069712
*CONN
*I *132:A I *D sky130_fd_sc_hd__clkbuf_1
*I *131:X O *D sky130_fd_sc_hd__and2b_1
*CAP
1 *132:A 0.000290823
2 *131:X 0.000290823
3 *137:A *132:A 0.000115474
*RES
1 *131:X *132:A 11.355 
*END
