*SPEF "ieee 1481-1999"
*DESIGN "mult4_SarsaNada_e6_SarsaNStepsRuido_e9_SarsaNStepsRuido_e9_SARSA_RUIDO_e9"
*DATE "12:07:05 Wednesday September 17, 2025"
*VENDOR "The OpenROAD Project"
*PROGRAM "OpenROAD"
*VERSION "edf00dff99f6c40d67a30c0e22a8191c5d2ed9d6"
*DESIGN_FLOW "NAME_SCOPE LOCAL" "PIN_CAP NONE"
*DIVIDER /
*DELIMITER :
*BUS_DELIMITER []
*T_UNIT 1 NS
*C_UNIT 1 PF
*R_UNIT 1 OHM
*L_UNIT 1 HENRY

*NAME_MAP
*1 A[0]
*2 A[1]
*3 A[2]
*4 A[3]
*5 B[0]
*6 B[1]
*7 B[2]
*8 B[3]
*9 P[0]
*10 P[1]
*11 P[2]
*12 P[3]
*13 P[4]
*14 P[5]
*15 P[6]
*16 P[7]
*19 _000_
*20 _001_
*21 _002_
*22 _003_
*23 _004_
*24 _005_
*25 _006_
*26 _007_
*27 _008_
*28 _009_
*29 _010_
*30 _011_
*31 _012_
*32 _013_
*33 _014_
*34 _015_
*35 _016_
*36 _017_
*37 _018_
*38 _019_
*39 _020_
*40 _021_
*41 _022_
*42 _023_
*43 _024_
*44 _025_
*45 _026_
*46 _027_
*47 _028_
*48 _029_
*49 _030_
*50 _031_
*51 _032_
*52 _033_
*53 _034_
*54 _035_
*55 _036_
*56 _037_
*57 _038_
*58 _039_
*59 _040_
*60 _041_
*61 _042_
*62 _043_
*63 _044_
*64 _045_
*65 _046_
*66 net1
*67 net10
*68 net11
*69 net12
*70 net13
*71 net14
*72 net15
*73 net16
*74 net2
*75 net3
*76 net4
*77 net5
*78 net6
*79 net7
*80 net8
*81 net9
*82 FILLER_0_15
*83 FILLER_0_27
*84 FILLER_0_3
*85 FILLER_0_33
*86 FILLER_0_55
*87 FILLER_0_76
*88 FILLER_0_80
*89 FILLER_1_11
*90 FILLER_1_22
*91 FILLER_1_29
*92 FILLER_1_3
*93 FILLER_1_34
*94 FILLER_1_42
*95 FILLER_1_51
*96 FILLER_1_55
*97 FILLER_1_57
*98 FILLER_1_61
*99 FILLER_1_75
*100 FILLER_2_11
*101 FILLER_2_23
*102 FILLER_2_3
*103 FILLER_2_38
*104 FILLER_2_49
*105 FILLER_2_61
*106 FILLER_2_7
*107 FILLER_2_79
*108 FILLER_3_28
*109 FILLER_3_3
*110 FILLER_3_36
*111 FILLER_3_79
*112 FILLER_4_19
*113 FILLER_4_27
*114 FILLER_4_29
*115 FILLER_4_41
*116 FILLER_4_53
*117 FILLER_4_65
*118 FILLER_4_7
*119 FILLER_5_19
*120 FILLER_5_34
*121 FILLER_5_40
*122 FILLER_5_51
*123 FILLER_5_55
*124 FILLER_5_57
*125 FILLER_5_69
*126 FILLER_5_7
*127 FILLER_5_79
*128 FILLER_6_18
*129 FILLER_6_34
*130 FILLER_6_40
*131 FILLER_6_48
*132 FILLER_6_52
*133 FILLER_6_60
*134 FILLER_6_68
*135 FILLER_6_79
*136 FILLER_7_15
*137 FILLER_7_19
*138 FILLER_7_31
*139 FILLER_7_55
*140 FILLER_7_57
*141 FILLER_7_7
*142 FILLER_7_74
*143 FILLER_7_80
*144 FILLER_8_16
*145 FILLER_8_29
*146 FILLER_8_3
*147 FILLER_8_41
*148 FILLER_8_53
*149 FILLER_8_65
*150 FILLER_8_77
*151 FILLER_9_19
*152 FILLER_9_27
*153 FILLER_9_36
*154 FILLER_9_42
*155 FILLER_9_54
*156 FILLER_9_57
*157 FILLER_9_69
*158 FILLER_9_7
*159 PHY_EDGE_ROW_0_Left_10
*160 PHY_EDGE_ROW_0_Right_0
*161 PHY_EDGE_ROW_1_Left_11
*162 PHY_EDGE_ROW_1_Right_1
*163 PHY_EDGE_ROW_2_Left_12
*164 PHY_EDGE_ROW_2_Right_2
*165 PHY_EDGE_ROW_3_Left_13
*166 PHY_EDGE_ROW_3_Right_3
*167 PHY_EDGE_ROW_4_Left_14
*168 PHY_EDGE_ROW_4_Right_4
*169 PHY_EDGE_ROW_5_Left_15
*170 PHY_EDGE_ROW_5_Right_5
*171 PHY_EDGE_ROW_6_Left_16
*172 PHY_EDGE_ROW_6_Right_6
*173 PHY_EDGE_ROW_7_Left_17
*174 PHY_EDGE_ROW_7_Right_7
*175 PHY_EDGE_ROW_8_Left_18
*176 PHY_EDGE_ROW_8_Right_8
*177 PHY_EDGE_ROW_9_Left_19
*178 PHY_EDGE_ROW_9_Right_9
*179 TAP_TAPCELL_ROW_0_20
*180 TAP_TAPCELL_ROW_0_21
*181 TAP_TAPCELL_ROW_1_22
*182 TAP_TAPCELL_ROW_2_23
*183 TAP_TAPCELL_ROW_3_24
*184 TAP_TAPCELL_ROW_4_25
*185 TAP_TAPCELL_ROW_5_26
*186 TAP_TAPCELL_ROW_6_27
*187 TAP_TAPCELL_ROW_7_28
*188 TAP_TAPCELL_ROW_8_29
*189 TAP_TAPCELL_ROW_9_30
*190 TAP_TAPCELL_ROW_9_31
*191 _047_
*192 _048_
*193 _049_
*194 _050_
*195 _051_
*196 _052_
*197 _053_
*198 _054_
*199 _055_
*200 _056_
*201 _057_
*202 _058_
*203 _059_
*204 _060_
*205 _061_
*206 _062_
*207 _063_
*208 _064_
*209 _065_
*210 _066_
*211 _067_
*212 _068_
*213 _069_
*214 _070_
*215 _071_
*216 _072_
*217 _073_
*218 _074_
*219 _075_
*220 _076_
*221 _077_
*222 _078_
*223 _079_
*224 _080_
*225 _081_
*226 _082_
*227 _083_
*228 _084_
*229 _085_
*230 _086_
*231 _087_
*232 _088_
*233 _089_
*234 _090_
*235 _091_
*236 _092_
*237 _093_
*238 _094_
*239 _095_
*240 _096_
*241 _097_
*242 _098_
*243 _099_
*244 _100_
*245 _101_
*246 input1
*247 input2
*248 input3
*249 input4
*250 input5
*251 input6
*252 input7
*253 input8
*254 output10
*255 output11
*256 output12
*257 output13
*258 output14
*259 output15
*260 output16
*261 output9

*PORTS
A[0] I
A[1] I
A[2] I
A[3] I
B[0] I
B[1] I
B[2] I
B[3] I
P[0] O
P[1] O
P[2] O
P[3] O
P[4] O
P[5] O
P[6] O
P[7] O

*D_NET *1 0.00124334
*CONN
*P A[0] I
*I *246:A I *D sky130_fd_sc_hd__buf_1
*CAP
1 A[0] 0.000515731
2 *246:A 0.000515731
3 *246:A P[2] 0
4 *246:A *252:A 0
5 *246:A *32:10 4.66108e-05
6 *246:A *66:14 7.30547e-05
7 *246:A *78:35 4.66108e-05
8 *246:A *79:14 4.56031e-05
*RES
1 A[0] *246:A 12.645 
*END

*D_NET *2 0.00073128
*CONN
*P A[1] I
*I *247:A I *D sky130_fd_sc_hd__buf_1
*CAP
1 A[1] 0.00036564
2 *247:A 0.00036564
3 *247:A P[2] 0
4 *247:A *192:B 0
*RES
1 A[1] *247:A 9.9 
*END

*D_NET *3 0.000641767
*CONN
*P A[2] I
*I *248:A I *D sky130_fd_sc_hd__clkbuf_2
*CAP
1 A[2] 0.000293934
2 *248:A 0.000293934
3 *248:A *249:A 3.14094e-05
4 *248:A *253:A 2.24901e-05
*RES
1 A[2] *248:A 7.4343 
*END

*D_NET *4 0.000865717
*CONN
*P A[3] I
*I *249:A I *D sky130_fd_sc_hd__buf_1
*CAP
1 A[3] 0.000401449
2 *249:A 0.000401449
3 *249:A *226:A2 0
4 *249:A *226:B1 0
5 *249:A *251:A 3.14094e-05
6 *249:A *80:20 0
7 *248:A *249:A 3.14094e-05
*RES
1 A[3] *249:A 7.90677 
*END

*D_NET *5 0.00122893
*CONN
*P B[0] I
*I *250:A I *D sky130_fd_sc_hd__dlymetal6s2s_1
*CAP
1 B[0] 0.000448008
2 *250:A 0.000448008
3 *250:A P[0] 0
4 *250:A *196:A2 8.53113e-06
5 *250:A *197:A2 3.09164e-05
6 *250:A *197:B1 2.42236e-05
7 *250:A *198:B 0.00012657
8 *250:A *77:8 0.000142669
*RES
1 B[0] *250:A 12.33 
*END

*D_NET *6 0.000677617
*CONN
*P B[1] I
*I *251:A I *D sky130_fd_sc_hd__clkbuf_2
*CAP
1 B[1] 0.000323104
2 *251:A 0.000323104
3 *249:A *251:A 3.14094e-05
*RES
1 B[1] *251:A 7.9443 
*END

*D_NET *7 0.000766742
*CONN
*P B[2] I
*I *252:A I *D sky130_fd_sc_hd__clkbuf_2
*CAP
1 B[2] 0.000376711
2 *252:A 0.000376711
3 *252:A P[0] 0
4 *252:A *192:A 1.33205e-05
5 *246:A *252:A 0
*RES
1 B[2] *252:A 10.095 
*END

*D_NET *8 0.000585827
*CONN
*P B[3] I
*I *253:A I *D sky130_fd_sc_hd__clkbuf_2
*CAP
1 B[3] 0.000267415
2 *253:A 0.000267415
3 *253:A P[7] 2.85068e-05
4 *248:A *253:A 2.24901e-05
*RES
1 B[3] *253:A 7.1793 
*END

*D_NET *9 0.00115371
*CONN
*P P[0] O
*I *261:X O *D sky130_fd_sc_hd__buf_2
*CAP
1 P[0] 0.000546572
2 *261:X 0.000546572
3 P[0] *192:A 6.11362e-06
4 P[0] *196:B1 1.29517e-05
5 P[0] *261:A 2.79137e-05
6 P[0] *77:27 1.3584e-05
7 *250:A P[0] 0
8 *252:A P[0] 0
*RES
1 *261:X P[0] 12.12 
*END

*D_NET *10 0.00127318
*CONN
*P P[1] O
*I *254:X O *D sky130_fd_sc_hd__buf_2
*CAP
1 P[1] 0.000594377
2 *254:X 0.000594377
3 P[1] *198:B 5.43869e-05
4 P[1] *254:A 3.00381e-05
*RES
1 *254:X P[1] 12.6 
*END

*D_NET *11 0.00130113
*CONN
*P P[2] O
*I *255:X O *D sky130_fd_sc_hd__buf_2
*CAP
1 P[2] 0.000505411
2 *255:X 0.000505411
3 P[2] *192:A 9.27255e-06
4 P[2] *199:C 5.49535e-05
5 P[2] *255:A 0.00012657
6 P[2] *66:30 2.30292e-05
7 P[2] *74:21 4.82919e-05
8 P[2] *79:14 2.8185e-05
9 *246:A P[2] 0
10 *247:A P[2] 0
*RES
1 *255:X P[2] 12.87 
*END

*D_NET *12 0.000629915
*CONN
*P P[3] O
*I *256:X O *D sky130_fd_sc_hd__buf_2
*CAP
1 P[3] 0.000260874
2 *256:X 0.000260874
3 P[3] P[4] 0
4 P[3] *256:A 0.000108167
*RES
1 *256:X P[3] 5.92503 
*END

*D_NET *13 0.00101571
*CONN
*P P[4] O
*I *257:X O *D sky130_fd_sc_hd__buf_2
*CAP
1 P[4] 0.00048339
2 *257:X 0.00048339
3 P[4] P[5] 0
4 P[4] *257:A 3.00381e-05
5 P[4] *47:10 1.88904e-05
6 P[3] P[4] 0
*RES
1 *257:X P[4] 7.4833 
*END

*D_NET *14 0.000599802
*CONN
*P P[5] O
*I *258:X O *D sky130_fd_sc_hd__buf_2
*CAP
1 P[5] 0.000269556
2 *258:X 0.000269556
3 P[5] *258:A 6.06899e-05
4 P[4] P[5] 0
*RES
1 *258:X P[5] 5.92503 
*END

*D_NET *15 0.000896884
*CONN
*P P[6] O
*I *259:X O *D sky130_fd_sc_hd__buf_2
*CAP
1 P[6] 0.000448442
2 *259:X 0.000448442
*RES
1 *259:X P[6] 11.55 
*END

*D_NET *16 0.000587539
*CONN
*P P[7] O
*I *260:X O *D sky130_fd_sc_hd__buf_2
*CAP
1 P[7] 0.000279516
2 *260:X 0.000279516
3 P[7] *260:A 0
4 *253:A P[7] 2.85068e-05
*RES
1 *260:X P[7] 5.92503 
*END

*D_NET *19 0.000769248
*CONN
*I *226:A2 I *D sky130_fd_sc_hd__a211o_1
*I *191:Y O *D sky130_fd_sc_hd__inv_2
*CAP
1 *226:A2 0.000177745
2 *191:Y 0.000177745
3 *226:A2 *224:A2 6.5525e-05
4 *226:A2 *226:B1 8.13862e-05
5 *226:A2 *75:6 4.47209e-05
6 *226:A2 *80:14 2.23922e-05
7 *226:A2 *80:16 0.000127373
8 *226:A2 *80:20 7.23602e-05
9 *249:A *226:A2 0
*RES
1 *191:Y *226:A2 10.995 
*END

*D_NET *20 0.000295403
*CONN
*I *199:C I *D sky130_fd_sc_hd__and3_1
*I *192:Y O *D sky130_fd_sc_hd__nand2_1
*CAP
1 *199:C 8.79065e-05
2 *192:Y 8.79065e-05
3 *199:C *74:8 4.99619e-05
4 *199:C *74:21 1.46744e-05
5 P[2] *199:C 5.49535e-05
*RES
1 *192:Y *199:C 4.4 
*END

*D_NET *21 0.00281557
*CONN
*I *194:A I *D sky130_fd_sc_hd__inv_2
*I *209:A I *D sky130_fd_sc_hd__xnor2_1
*I *196:B1 I *D sky130_fd_sc_hd__a21o_1
*I *193:X O *D sky130_fd_sc_hd__and4_1
*CAP
1 *194:A 0.000136153
2 *209:A 0
3 *196:B1 0.000148704
4 *193:X 3.79536e-05
5 *21:29 0.000364852
6 *21:8 0.000415357
7 *194:A *198:A 4.60584e-05
8 *194:A *208:A 9.53428e-06
9 *194:A *208:B 0.000174409
10 *194:A *22:6 3.00381e-05
11 *194:A *32:10 1.60203e-05
12 *194:A *33:10 4.99619e-05
13 *194:A *34:10 8.8266e-05
14 *196:B1 *193:D 1.03833e-05
15 *196:B1 *196:A2 5.67956e-05
16 *196:B1 *197:B1 0.0001421
17 *196:B1 *197:B2 8.98541e-05
18 *196:B1 *77:27 0.000150269
19 *21:8 *193:D 5.51574e-05
20 *21:8 *197:B1 5.30557e-05
21 *21:29 *195:B1_N 0.000120655
22 *21:29 *197:B1 2.5949e-05
23 *21:29 *32:10 0.000581093
24 P[0] *196:B1 1.29517e-05
*RES
1 *193:X *21:8 4.8525 
2 *21:8 *196:B1 7.7175 
3 *21:8 *21:29 7.9625 
4 *21:29 *209:A 1.6 
5 *21:29 *194:A 5.185 
*END

*D_NET *22 0.000666992
*CONN
*I *208:A I *D sky130_fd_sc_hd__nor2_1
*I *198:A I *D sky130_fd_sc_hd__and2_1
*I *194:Y O *D sky130_fd_sc_hd__inv_2
*CAP
1 *208:A 1.85694e-05
2 *198:A 0.000209075
3 *194:Y 3.88903e-05
4 *22:6 0.000266535
5 *198:A *208:B 4.82919e-05
6 *208:A *208:B 0
7 *194:A *198:A 4.60584e-05
8 *194:A *208:A 9.53428e-06
9 *194:A *22:6 3.00381e-05
*RES
1 *194:Y *22:6 2.395 
2 *22:6 *198:A 8.885 
3 *22:6 *208:A 1.96 
*END

*D_NET *23 0.000525913
*CONN
*I *196:A2 I *D sky130_fd_sc_hd__a21o_1
*I *195:X O *D sky130_fd_sc_hd__o21ba_1
*CAP
1 *196:A2 9.77929e-05
2 *195:X 9.77929e-05
3 *196:A2 *197:A2 6.11019e-05
4 *196:A2 *197:B1 0.00014605
5 *196:A2 *197:B2 4.65915e-05
6 *196:A2 *77:12 1.12578e-05
7 *196:B1 *196:A2 5.67956e-05
8 *250:A *196:A2 8.53113e-06
*RES
1 *195:X *196:A2 10.08 
*END

*D_NET *24 0.000933823
*CONN
*I *198:B I *D sky130_fd_sc_hd__and2_1
*I *197:X O *D sky130_fd_sc_hd__a22o_1
*CAP
1 *198:B 0.000352158
2 *197:X 0.000352158
3 *198:B *77:8 4.85494e-05
4 P[1] *198:B 5.43869e-05
5 *250:A *198:B 0.00012657
*RES
1 *197:X *198:B 9.095 
*END

*D_NET *25 0.0030313
*CONN
*I *201:A I *D sky130_fd_sc_hd__inv_2
*I *219:S I *D sky130_fd_sc_hd__mux2_1
*I *227:B I *D sky130_fd_sc_hd__nand3_1
*I *217:B I *D sky130_fd_sc_hd__nand2_1
*I *200:X O *D sky130_fd_sc_hd__and3_1
*CAP
1 *201:A 9.43645e-05
2 *219:S 0
3 *227:B 0.000107545
4 *217:B 0
5 *200:X 0
6 *25:40 0.00067126
7 *25:8 0.000232288
8 *25:4 0.000701638
9 *201:A *202:A 0.000122155
10 *201:A *211:A2 0
11 *201:A *27:6 4.99619e-05
12 *201:A *28:16 0.000154196
13 *227:B *200:C 0
14 *227:B *217:A 4.82919e-05
15 *227:B *228:B 3.09088e-05
16 *25:8 *218:B 0
17 *25:40 *200:A 4.45799e-05
18 *25:40 *200:B 0.000196767
19 *25:40 *200:C 1.15171e-05
20 *25:40 *202:A 2.75229e-05
21 *25:40 *203:B1 2.18466e-05
22 *25:40 *218:B 0.000124099
23 *25:40 *28:16 0.000384745
24 *25:40 *75:44 7.61761e-06
*RES
1 *200:X *25:4 1.6 
2 *25:4 *25:8 2.1 
3 *25:8 *217:B 1.6 
4 *25:8 *227:B 3.445 
5 *25:4 *25:40 13.435 
6 *25:40 *219:S 1.6 
7 *25:40 *201:A 4.825 
*END

*D_NET *26 0.000612946
*CONN
*I *210:A I *D sky130_fd_sc_hd__and4_1
*I *211:A1 I *D sky130_fd_sc_hd__a31o_1
*I *201:Y O *D sky130_fd_sc_hd__inv_2
*CAP
1 *210:A 4.10183e-05
2 *211:A1 0
3 *201:Y 6.13892e-05
4 *26:6 0.000102408
5 *210:A *210:B 2.16833e-05
6 *210:A *210:C 0.000122337
7 *210:A *210:D 0.000118294
8 *210:A *27:6 2.30292e-05
9 *26:6 *210:D 2.75229e-05
10 *26:6 *27:6 9.52646e-05
*RES
1 *201:Y *26:6 3.085 
2 *26:6 *211:A1 1.6 
3 *26:6 *210:A 3.43 
*END

*D_NET *27 0.00114552
*CONN
*I *210:B I *D sky130_fd_sc_hd__and4_1
*I *211:A2 I *D sky130_fd_sc_hd__a31o_1
*I *202:X O *D sky130_fd_sc_hd__or2_1
*CAP
1 *210:B 8.26512e-05
2 *211:A2 2.08101e-05
3 *202:X 5.01987e-05
4 *27:6 0.00015366
5 *210:B *210:C 0.000209513
6 *210:B *212:B 0.0001249
7 *210:B *28:16 3.66286e-05
8 *211:A2 *210:C 0
9 *27:6 *28:16 0.000277223
10 *201:A *211:A2 0
11 *201:A *27:6 4.99619e-05
12 *210:A *210:B 2.16833e-05
13 *210:A *27:6 2.30292e-05
14 *26:6 *27:6 9.52646e-05
*RES
1 *202:X *27:6 4.12 
2 *27:6 *211:A2 1.96 
3 *27:6 *210:B 4.39 
*END

*D_NET *28 0.00286052
*CONN
*I *210:C I *D sky130_fd_sc_hd__and4_1
*I *211:A3 I *D sky130_fd_sc_hd__a31o_1
*I *203:X O *D sky130_fd_sc_hd__a21o_1
*CAP
1 *210:C 7.15962e-05
2 *211:A3 0
3 *203:X 0.000524485
4 *28:16 0.000596081
5 *210:C *210:D 9.95239e-05
6 *210:C *212:B 1.33293e-05
7 *28:16 *202:A 3.38582e-05
8 *28:16 *210:D 4.18603e-06
9 *28:16 *218:B 4.89295e-05
10 *28:16 *219:A0 0.000238404
11 *28:16 *33:10 2.59981e-05
12 *28:16 *34:10 1.94892e-05
13 *201:A *28:16 0.000154196
14 *210:A *210:C 0.000122337
15 *210:B *210:C 0.000209513
16 *210:B *28:16 3.66286e-05
17 *211:A2 *210:C 0
18 *25:40 *28:16 0.000384745
19 *27:6 *28:16 0.000277223
*RES
1 *203:X *28:16 15.755 
2 *28:16 *211:A3 1.6 
3 *28:16 *210:C 4.495 
*END

*D_NET *29 0.002192
*CONN
*I *216:S I *D sky130_fd_sc_hd__mux2_1
*I *214:B I *D sky130_fd_sc_hd__and2_1
*I *207:A I *D sky130_fd_sc_hd__or3_1
*I *204:X O *D sky130_fd_sc_hd__and3_1
*CAP
1 *216:S 0.000168726
2 *214:B 0.000136312
3 *207:A 0.000101466
4 *204:X 0
5 *29:6 0.000506475
6 *29:4 0.000437423
7 *207:A *206:B1 8.93071e-06
8 *207:A *207:C 5.34066e-05
9 *214:B *206:A2 0.000114492
10 *214:B *207:B 0
11 *214:B *214:A 9.68787e-05
12 *214:B *78:16 0
13 *214:B *79:44 0.00020613
14 *216:S *66:14 8.53113e-06
15 *216:S *77:61 0
16 *216:S *78:35 6.59822e-05
17 *216:S *79:31 0
18 *29:6 *204:C 1.70906e-05
19 *29:6 *206:A1 0.00016063
20 *29:6 *206:A2 2.0514e-05
21 *29:6 *206:B1 1.12578e-05
22 *29:6 *78:35 7.77549e-05
*RES
1 *204:X *29:4 1.6 
2 *29:4 *29:6 3.555 
3 *29:6 *207:A 3.565 
4 *29:6 *214:B 9.275 
5 *29:4 *216:S 8.03 
*END

*D_NET *30 0.000710491
*CONN
*I *207:B I *D sky130_fd_sc_hd__or3_1
*I *205:Y O *D sky130_fd_sc_hd__nor2_1
*CAP
1 *207:B 0.000273646
2 *205:Y 0.000273646
3 *207:B *199:B 0
4 *207:B *205:B 8.8266e-05
5 *207:B *206:A2 0
6 *207:B *206:B1 0
7 *207:B *80:33 7.49327e-05
8 *214:B *207:B 0
*RES
1 *205:Y *207:B 10.83 
*END

*D_NET *31 0.000375039
*CONN
*I *207:C I *D sky130_fd_sc_hd__or3_1
*I *206:Y O *D sky130_fd_sc_hd__a21oi_1
*CAP
1 *207:C 0.000130006
2 *206:Y 0.000130006
3 *207:C *206:B1 1.16578e-05
4 *207:C *32:10 4.99619e-05
5 *207:A *207:C 5.34066e-05
*RES
1 *206:Y *207:C 5.645 
*END

*D_NET *32 0.0035949
*CONN
*I *208:B I *D sky130_fd_sc_hd__nor2_1
*I *209:B I *D sky130_fd_sc_hd__xnor2_1
*I *207:X O *D sky130_fd_sc_hd__or3_1
*CAP
1 *208:B 6.36984e-05
2 *209:B 0
3 *207:X 0.000863341
4 *32:10 0.00092704
5 *32:10 *195:A1 8.55298e-05
6 *32:10 *195:B1_N 2.0514e-05
7 *32:10 *206:A1 2.10034e-05
8 *32:10 *206:A2 1.47347e-05
9 *32:10 *206:B1 4.35348e-05
10 *32:10 *66:14 0.000111901
11 *32:10 *66:30 2.75229e-05
12 *32:10 *66:63 2.58336e-05
13 *32:10 *66:72 4.77719e-05
14 *32:10 *78:35 0.000426086
15 *194:A *208:B 0.000174409
16 *194:A *32:10 1.60203e-05
17 *198:A *208:B 4.82919e-05
18 *207:C *32:10 4.99619e-05
19 *208:A *208:B 0
20 *246:A *32:10 4.66108e-05
21 *21:29 *32:10 0.000581093
*RES
1 *207:X *32:10 18.985 
2 *32:10 *209:B 1.6 
3 *32:10 *208:B 3.445 
*END

*D_NET *33 0.00182274
*CONN
*I *223:A1 I *D sky130_fd_sc_hd__o21ai_1
*I *244:A I *D sky130_fd_sc_hd__or3_1
*I *208:Y O *D sky130_fd_sc_hd__nor2_1
*CAP
1 *223:A1 0.000267835
2 *244:A 4.60908e-05
3 *208:Y 0.000474694
4 *33:10 0.00078862
5 *223:A1 *223:B1 8.01082e-06
6 *223:A1 *244:B 0.000161529
7 *244:A *35:23 0
8 *33:10 *210:D 0
9 *33:10 *212:A_N 0
10 *33:10 *212:B 0
11 *33:10 *34:10 0
12 *33:10 *35:23 0
13 *194:A *33:10 4.99619e-05
14 *28:16 *33:10 2.59981e-05
*RES
1 *208:Y *33:10 10.9125 
2 *33:10 *244:A 4.3425 
3 *33:10 *223:A1 7.3275 
*END

*D_NET *34 0.00154098
*CONN
*I *210:D I *D sky130_fd_sc_hd__and4_1
*I *211:B1 I *D sky130_fd_sc_hd__a31o_1
*I *209:Y O *D sky130_fd_sc_hd__xnor2_1
*CAP
1 *210:D 0.00032388
2 *211:B1 0
3 *209:Y 0.000266058
4 *34:10 0.000589939
5 *210:D *202:B 0
6 *210:D *212:B 3.81908e-06
7 *194:A *34:10 8.8266e-05
8 *210:A *210:D 0.000118294
9 *210:C *210:D 9.95239e-05
10 *26:6 *210:D 2.75229e-05
11 *28:16 *210:D 4.18603e-06
12 *28:16 *34:10 1.94892e-05
13 *33:10 *210:D 0
14 *33:10 *34:10 0
*RES
1 *209:Y *34:10 7.815 
2 *34:10 *211:B1 3.6 
3 *34:10 *210:D 8.025 
*END

*D_NET *35 0.00165312
*CONN
*I *223:A2 I *D sky130_fd_sc_hd__o21ai_1
*I *244:B I *D sky130_fd_sc_hd__or3_1
*I *212:A_N I *D sky130_fd_sc_hd__and2b_1
*I *210:X O *D sky130_fd_sc_hd__and4_1
*CAP
1 *223:A2 0
2 *244:B 7.00871e-05
3 *212:A_N 0.000187595
4 *210:X 3.76639e-05
5 *35:23 0.000266892
6 *35:8 0.000422063
7 *212:A_N *212:B 9.5433e-05
8 *212:A_N *256:A 0.000141599
9 *244:B *223:B1 7.76037e-05
10 *244:B *47:10 2.96334e-05
11 *35:23 *256:A 0.000163019
12 *223:A1 *244:B 0.000161529
13 *244:A *35:23 0
14 *33:10 *212:A_N 0
15 *33:10 *35:23 0
*RES
1 *210:X *35:8 4.05 
2 *35:8 *212:A_N 7.23 
3 *35:8 *35:23 5.675 
4 *35:23 *244:B 3.79 
5 *35:23 *223:A2 1.6 
*END

*D_NET *36 0.000618464
*CONN
*I *212:B I *D sky130_fd_sc_hd__and2b_1
*I *211:X O *D sky130_fd_sc_hd__a31o_1
*CAP
1 *212:B 0.000190491
2 *211:X 0.000190491
3 *210:B *212:B 0.0001249
4 *210:C *212:B 1.33293e-05
5 *210:D *212:B 3.81908e-06
6 *212:A_N *212:B 9.5433e-05
7 *33:10 *212:B 0
*RES
1 *211:X *212:B 10.155 
*END

*D_NET *37 0.00213957
*CONN
*I *222:A I *D sky130_fd_sc_hd__xnor2_1
*I *236:C I *D sky130_fd_sc_hd__and3_1
*I *213:Y O *D sky130_fd_sc_hd__nand2_1
*CAP
1 *222:A 0.00065228
2 *236:C 3.79806e-05
3 *213:Y 4.91633e-05
4 *37:10 0.000739424
5 *222:A *222:B 0.000107652
6 *222:A *230:A1 1.91597e-05
7 *222:A *230:A2 0.000345863
8 *222:A *230:A3 3.39426e-05
9 *222:A *230:B1 8.05141e-06
10 *222:A *236:A 4.77757e-05
11 *222:A *76:49 7.10593e-06
12 *236:C *236:A 5.49479e-05
13 *37:10 *230:A1 3.62197e-05
*RES
1 *213:Y *37:10 6.47 
2 *37:10 *236:C 2.11 
3 *37:10 *222:A 10.255 
*END

*D_NET *38 0.000684649
*CONN
*I *227:C I *D sky130_fd_sc_hd__nand3_1
*I *228:A I *D sky130_fd_sc_hd__xor2_1
*I *214:X O *D sky130_fd_sc_hd__and2_1
*CAP
1 *227:C 8.77119e-05
2 *228:A 9.34736e-05
3 *214:X 0
4 *38:4 0.000181186
5 *227:C *228:B 0.000163635
6 *227:C *237:B1 6.65267e-05
7 *228:A *228:B 9.21168e-05
*RES
1 *214:X *38:4 1.6 
2 *38:4 *228:A 3.43 
3 *38:4 *227:C 4.255 
*END

*D_NET *39 0.000610179
*CONN
*I *216:A0 I *D sky130_fd_sc_hd__mux2_1
*I *215:Y O *D sky130_fd_sc_hd__nand2_1
*CAP
1 *216:A0 5.76607e-05
2 *215:Y 5.76607e-05
3 *216:A0 *216:A1 0.000236733
4 *216:A0 *74:43 2.0514e-05
5 *216:A0 *74:50 0.000237611
*RES
1 *215:Y *216:A0 5.72 
*END

*D_NET *40 0.00184656
*CONN
*I *220:A I *D sky130_fd_sc_hd__nor2_1
*I *221:A I *D sky130_fd_sc_hd__xor2_1
*I *216:X O *D sky130_fd_sc_hd__mux2_1
*CAP
1 *220:A 0.000187674
2 *221:A 0
3 *216:X 0.000431653
4 *40:14 0.000619326
5 *220:A *220:B 8.40269e-05
6 *220:A *221:B 9.4424e-05
7 *40:14 *203:B1 4.99524e-05
8 *40:14 *74:50 4.59354e-05
9 *40:14 *76:49 0.000199054
10 *40:14 *77:61 0.000134516
*RES
1 *216:X *40:14 13.595 
2 *40:14 *221:A 1.6 
3 *40:14 *220:A 4.84 
*END

*D_NET *41 0.000940091
*CONN
*I *228:B I *D sky130_fd_sc_hd__xor2_1
*I *217:Y O *D sky130_fd_sc_hd__nand2_1
*CAP
1 *228:B 0.000306289
2 *217:Y 0.000306289
3 *228:B *217:A 2.75229e-05
4 *228:B *237:B1 1.33293e-05
5 *227:B *228:B 3.09088e-05
6 *227:C *228:B 0.000163635
7 *228:A *228:B 9.21168e-05
*RES
1 *217:Y *228:B 8.495 
*END

*D_NET *42 0.000534553
*CONN
*I *219:A0 I *D sky130_fd_sc_hd__mux2_1
*I *218:Y O *D sky130_fd_sc_hd__nand2_1
*CAP
1 *219:A0 5.97232e-05
2 *218:Y 5.97232e-05
3 *219:A0 *202:A 9.01113e-05
4 *219:A0 *218:A 8.65905e-05
5 *28:16 *219:A0 0.000238404
*RES
1 *218:Y *219:A0 5.735 
*END

*D_NET *43 0.000955817
*CONN
*I *220:B I *D sky130_fd_sc_hd__nor2_1
*I *221:B I *D sky130_fd_sc_hd__xor2_1
*I *219:X O *D sky130_fd_sc_hd__mux2_1
*CAP
1 *220:B 3.3129e-05
2 *221:B 5.40558e-05
3 *219:X 0.00025884
4 *43:12 0.000346025
5 *43:12 *202:A 4.99619e-05
6 *43:12 *45:10 3.09164e-05
7 *43:12 *78:71 4.43871e-06
8 *220:A *220:B 8.40269e-05
9 *220:A *221:B 9.4424e-05
*RES
1 *219:X *43:12 9.725 
2 *43:12 *221:B 2.755 
3 *43:12 *220:B 2.395 
*END

*D_NET *44 0.000813572
*CONN
*I *230:B1 I *D sky130_fd_sc_hd__a31o_1
*I *220:Y O *D sky130_fd_sc_hd__nor2_1
*CAP
1 *230:B1 0.00025714
2 *220:Y 0.00025714
3 *230:B1 *222:B 8.49205e-05
4 *230:B1 *230:A1 2.86975e-05
5 *230:B1 *230:A2 1.52352e-05
6 *230:B1 *230:A3 8.6076e-05
7 *230:B1 *45:10 7.63125e-05
8 *222:A *230:B1 8.05141e-06
*RES
1 *220:Y *230:B1 11.97 
*END

*D_NET *45 0.000911555
*CONN
*I *222:B I *D sky130_fd_sc_hd__xnor2_1
*I *230:A3 I *D sky130_fd_sc_hd__a31o_1
*I *221:X O *D sky130_fd_sc_hd__xor2_1
*CAP
1 *222:B 0.000102962
2 *230:A3 1.98741e-05
3 *221:X 0.000123031
4 *45:10 0.000245867
5 *45:10 *76:49 0
6 *222:A *222:B 0.000107652
7 *222:A *230:A3 3.39426e-05
8 *230:B1 *222:B 8.49205e-05
9 *230:B1 *230:A3 8.6076e-05
10 *230:B1 *45:10 7.63125e-05
11 *43:12 *45:10 3.09164e-05
*RES
1 *221:X *45:10 8 
2 *45:10 *230:A3 2.395 
3 *45:10 *222:B 4.12 
*END

*D_NET *46 0.00121843
*CONN
*I *223:B1 I *D sky130_fd_sc_hd__o21ai_1
*I *244:C I *D sky130_fd_sc_hd__or3_1
*I *222:Y O *D sky130_fd_sc_hd__xnor2_1
*CAP
1 *223:B1 0.000100409
2 *244:C 0
3 *222:Y 0.000449459
4 *46:12 0.000549868
5 *223:B1 *245:B 2.23159e-05
6 *223:B1 *47:10 1.07634e-05
7 *46:12 *245:B 0
8 *46:12 *47:10 0
9 *223:A1 *223:B1 8.01082e-06
10 *244:B *223:B1 7.76037e-05
*RES
1 *222:Y *46:12 10.88 
2 *46:12 *244:C 1.6 
3 *46:12 *223:B1 3.8875 
*END

*D_NET *47 0.00128857
*CONN
*I *234:A I *D sky130_fd_sc_hd__xnor2_1
*I *233:A_N I *D sky130_fd_sc_hd__and2b_1
*I *245:A I *D sky130_fd_sc_hd__and2_1
*I *223:Y O *D sky130_fd_sc_hd__o21ai_1
*CAP
1 *234:A 0
2 *233:A_N 5.75603e-05
3 *245:A 0
4 *223:Y 0.000103711
5 *47:23 0.000353037
6 *47:10 0.000399187
7 *233:A_N *234:B 5.30673e-05
8 *47:10 *245:B 0.00016612
9 *47:23 *258:A 9.66021e-05
10 P[4] *47:10 1.88904e-05
11 *223:B1 *47:10 1.07634e-05
12 *244:B *47:10 2.96334e-05
13 *46:12 *47:10 0
*RES
1 *223:Y *47:10 6.03 
2 *47:10 *245:A 3.6 
3 *47:10 *47:23 7.265 
4 *47:23 *233:A_N 2.74 
5 *47:23 *234:A 1.6 
*END

*D_NET *48 0.000712407
*CONN
*I *226:B1 I *D sky130_fd_sc_hd__a211o_1
*I *224:Y O *D sky130_fd_sc_hd__a21oi_1
*CAP
1 *226:B1 0.000176774
2 *224:Y 0.000176774
3 *226:B1 *224:A2 0.000118513
4 *226:B1 *75:6 0.00015896
5 *226:A2 *226:B1 8.13862e-05
6 *249:A *226:B1 0
*RES
1 *224:Y *226:B1 11.085 
*END

*D_NET *49 0.00119363
*CONN
*I *243:A2 I *D sky130_fd_sc_hd__a211o_1
*I *226:C1 I *D sky130_fd_sc_hd__a211o_1
*I *225:X O *D sky130_fd_sc_hd__and3_1
*CAP
1 *243:A2 0.000161403
2 *226:C1 0.000152967
3 *225:X 6.47741e-05
4 *49:6 0.000379145
5 *226:C1 *225:B 0
6 *226:C1 *226:A1 5.06796e-05
7 *226:C1 *50:8 8.81077e-06
8 *226:C1 *76:6 3.03684e-05
9 *226:C1 *76:27 1.34594e-05
10 *243:A2 *240:B 0
11 *243:A2 *243:A1 0.000186099
12 *243:A2 *60:10 0
13 *243:A2 *80:14 9.54399e-05
14 *49:6 *76:27 5.04875e-05
*RES
1 *225:X *49:6 2.395 
2 *49:6 *226:C1 4.405 
3 *49:6 *243:A2 9.02 
*END

*D_NET *50 0.00126592
*CONN
*I *237:A1 I *D sky130_fd_sc_hd__o21ai_1
*I *229:A I *D sky130_fd_sc_hd__xor2_1
*I *226:X O *D sky130_fd_sc_hd__a211o_1
*CAP
1 *237:A1 0.000101169
2 *229:A 0.000120782
3 *226:X 5.62928e-05
4 *50:8 0.000278244
5 *229:A *225:C 8.31965e-05
6 *229:A *226:A1 0
7 *229:A *229:B 0.000237249
8 *229:A *76:36 3.6009e-05
9 *237:A1 *229:B 0.000180675
10 *237:A1 *76:27 3.05238e-05
11 *237:A1 *80:16 0
12 *237:A1 *80:20 0
13 *50:8 *225:C 2.0857e-06
14 *50:8 *226:A1 4.00541e-06
15 *50:8 *76:27 0.000126875
16 *226:C1 *50:8 8.81077e-06
*RES
1 *226:X *50:8 3.1 
2 *50:8 *229:A 5.065 
3 *50:8 *237:A1 7.745 
*END

*D_NET *51 0.000883235
*CONN
*I *237:B1 I *D sky130_fd_sc_hd__o21ai_1
*I *227:Y O *D sky130_fd_sc_hd__nand3_1
*CAP
1 *237:B1 0.000252812
2 *227:Y 0.000252812
3 *237:B1 *78:10 0
4 *237:B1 *79:44 0.000297754
5 *227:C *237:B1 6.65267e-05
6 *228:B *237:B1 1.33293e-05
*RES
1 *227:Y *237:B1 12.105 
*END

*D_NET *52 0.00184198
*CONN
*I *229:B I *D sky130_fd_sc_hd__xor2_1
*I *237:A2 I *D sky130_fd_sc_hd__o21ai_1
*I *228:X O *D sky130_fd_sc_hd__xor2_1
*CAP
1 *229:B 0.000181636
2 *237:A2 3.58834e-05
3 *228:X 0.000169659
4 *52:8 0.000387179
5 *229:B *225:A 8.45475e-05
6 *229:B *60:10 2.23407e-05
7 *229:B *76:36 0.000237249
8 *229:B *79:44 6.00555e-05
9 *229:B *79:72 4.21314e-05
10 *229:B *80:20 0
11 *237:A2 *75:19 2.75229e-05
12 *52:8 *79:44 0.000175848
13 *52:8 *80:20 0
14 *229:A *229:B 0.000237249
15 *237:A1 *229:B 0.000180675
*RES
1 *228:X *52:8 7.275 
2 *52:8 *237:A2 4.05 
3 *52:8 *229:B 9.24 
*END

*D_NET *53 0.00194762
*CONN
*I *231:A I *D sky130_fd_sc_hd__and2_1
*I *232:A I *D sky130_fd_sc_hd__xor2_1
*I *229:X O *D sky130_fd_sc_hd__xor2_1
*CAP
1 *231:A 0.000121104
2 *232:A 0
3 *229:X 0.000459787
4 *53:12 0.000580891
5 *231:A *231:B 0.000250622
6 *231:A *55:12 0.000202664
7 *231:A *56:6 1.61831e-05
8 *53:12 *236:A 9.54399e-05
9 *53:12 *238:A 1.07797e-05
10 *53:12 *238:B 4.43871e-06
11 *53:12 *239:A 8.49205e-05
12 *53:12 *55:12 0.000110007
13 *53:12 *59:8 1.07797e-05
14 *53:12 *60:10 0
*RES
1 *229:X *53:12 13.55 
2 *53:12 *232:A 1.6 
3 *53:12 *231:A 5.185 
*END

*D_NET *54 0.00067737
*CONN
*I *231:B I *D sky130_fd_sc_hd__and2_1
*I *232:B I *D sky130_fd_sc_hd__xor2_1
*I *230:X O *D sky130_fd_sc_hd__a31o_1
*CAP
1 *231:B 6.45328e-05
2 *232:B 0
3 *230:X 0.000110793
4 *54:12 0.000175325
5 *231:B *56:6 7.60965e-05
6 *231:A *231:B 0.000250622
*RES
1 *230:X *54:12 7.43 
2 *54:12 *232:B 1.6 
3 *54:12 *231:B 4.135 
*END

*D_NET *55 0.00134347
*CONN
*I *235:A I *D sky130_fd_sc_hd__nor2_1
*I *241:A1 I *D sky130_fd_sc_hd__o21ba_1
*I *231:X O *D sky130_fd_sc_hd__and2_1
*CAP
1 *235:A 0
2 *241:A1 5.88924e-05
3 *231:X 0.000360998
4 *55:12 0.00041989
5 *241:A1 *235:B 4.90547e-05
6 *241:A1 *57:14 0.000141968
7 *231:A *55:12 0.000202664
8 *53:12 *55:12 0.000110007
*RES
1 *231:X *55:12 10.535 
2 *55:12 *241:A1 3.46 
3 *55:12 *235:A 1.6 
*END

*D_NET *56 0.00106074
*CONN
*I *234:B I *D sky130_fd_sc_hd__xnor2_1
*I *233:B I *D sky130_fd_sc_hd__and2b_1
*I *232:X O *D sky130_fd_sc_hd__xor2_1
*CAP
1 *234:B 0.000156764
2 *233:B 0
3 *232:X 0.000300935
4 *56:6 0.000457699
5 *231:A *56:6 1.61831e-05
6 *231:B *56:6 7.60965e-05
7 *233:A_N *234:B 5.30673e-05
*RES
1 *232:X *56:6 6.19 
2 *56:6 *233:B 1.6 
3 *56:6 *234:B 4.135 
*END

*D_NET *57 0.0021186
*CONN
*I *235:B I *D sky130_fd_sc_hd__nor2_1
*I *241:A2 I *D sky130_fd_sc_hd__o21ba_1
*I *233:X O *D sky130_fd_sc_hd__and2b_1
*CAP
1 *235:B 6.73836e-05
2 *241:A2 0
3 *233:X 0.000890404
4 *57:14 0.000957787
5 *235:B *241:B1_N 8.50369e-06
6 *57:14 *241:B1_N 3.50152e-06
7 *241:A1 *235:B 4.90547e-05
8 *241:A1 *57:14 0.000141968
*RES
1 *233:X *57:14 16.16 
2 *57:14 *241:A2 1.6 
3 *57:14 *235:B 3.46 
*END

*D_NET *58 0.000733061
*CONN
*I *242:A I *D sky130_fd_sc_hd__xor2_1
*I *235:Y O *D sky130_fd_sc_hd__nor2_1
*CAP
1 *242:A 0.000329844
2 *235:Y 0.000329844
3 *242:A *242:B 0
4 *242:A *259:A 7.33728e-05
*RES
1 *235:Y *242:A 12.315 
*END

*D_NET *59 0.00182256
*CONN
*I *238:A I *D sky130_fd_sc_hd__and2_1
*I *239:A I *D sky130_fd_sc_hd__nor2_1
*I *236:X O *D sky130_fd_sc_hd__and3_1
*CAP
1 *238:A 0.000147597
2 *239:A 0.000134478
3 *236:X 6.29845e-05
4 *59:8 0.00034506
5 *238:A *238:B 0
6 *238:A *243:C1 8.65905e-05
7 *238:A *63:6 8.65905e-05
8 *239:A *236:A 0.000464499
9 *239:A *238:B 0.000278117
10 *239:A *240:B 1.47256e-05
11 *59:8 *236:A 9.54399e-05
12 *53:12 *238:A 1.07797e-05
13 *53:12 *239:A 8.49205e-05
14 *53:12 *59:8 1.07797e-05
*RES
1 *236:X *59:8 4.98 
2 *59:8 *239:A 8.55 
3 *59:8 *238:A 6.54 
*END

*D_NET *60 0.00133177
*CONN
*I *238:B I *D sky130_fd_sc_hd__and2_1
*I *239:B I *D sky130_fd_sc_hd__nor2_1
*I *237:Y O *D sky130_fd_sc_hd__o21ai_1
*CAP
1 *238:B 0.000224143
2 *239:B 0
3 *237:Y 0.000199398
4 *60:10 0.000423541
5 *238:B *240:B 5.83121e-06
6 *60:10 *225:A 9.30787e-05
7 *60:10 *225:C 7.23533e-05
8 *60:10 *236:A 0
9 *60:10 *79:72 8.53113e-06
10 *60:10 *80:14 0
11 *229:B *60:10 2.23407e-05
12 *238:A *238:B 0
13 *239:A *238:B 0.000278117
14 *243:A2 *60:10 0
15 *53:12 *238:B 4.43871e-06
16 *53:12 *60:10 0
*RES
1 *237:Y *60:10 9.275 
2 *60:10 *239:B 1.6 
3 *60:10 *238:B 10.01 
*END

*D_NET *61 0.000687283
*CONN
*I *243:B1 I *D sky130_fd_sc_hd__a211o_1
*I *240:A I *D sky130_fd_sc_hd__or2_1
*I *238:X O *D sky130_fd_sc_hd__and2_1
*CAP
1 *243:B1 0.000127888
2 *240:A 0
3 *238:X 2.95653e-05
4 *61:6 0.000157453
5 *243:B1 *243:A1 5.4155e-06
6 *243:B1 *243:C1 0.000190429
7 *61:6 *243:C1 0.00012657
8 *61:6 *63:6 4.99619e-05
*RES
1 *238:X *61:6 2.74 
2 *61:6 *240:A 1.6 
3 *61:6 *243:B1 4.495 
*END

*D_NET *62 0.000246535
*CONN
*I *240:B I *D sky130_fd_sc_hd__or2_1
*I *239:Y O *D sky130_fd_sc_hd__nor2_1
*CAP
1 *240:B 0.000112989
2 *239:Y 0.000112989
3 *238:B *240:B 5.83121e-06
4 *239:A *240:B 1.47256e-05
5 *243:A2 *240:B 0
*RES
1 *239:Y *240:B 8.775 
*END

*D_NET *63 0.000898036
*CONN
*I *241:B1_N I *D sky130_fd_sc_hd__o21ba_1
*I *242:B I *D sky130_fd_sc_hd__xor2_1
*I *240:X O *D sky130_fd_sc_hd__or2_1
*CAP
1 *241:B1_N 6.7391e-05
2 *242:B 0.000124634
3 *240:X 0.000131245
4 *63:6 0.00032327
5 *63:6 *243:C1 0.000102939
6 *235:B *241:B1_N 8.50369e-06
7 *238:A *63:6 8.65905e-05
8 *242:A *242:B 0
9 *57:14 *241:B1_N 3.50152e-06
10 *61:6 *63:6 4.99619e-05
*RES
1 *240:X *63:6 4.465 
2 *63:6 *242:B 7.49 
3 *63:6 *241:B1_N 2.755 
*END

*D_NET *64 0.00108019
*CONN
*I *243:C1 I *D sky130_fd_sc_hd__a211o_1
*I *241:X O *D sky130_fd_sc_hd__o21ba_1
*CAP
1 *243:C1 0.000286831
2 *241:X 0.000286831
3 *243:C1 *243:A1 0
4 *238:A *243:C1 8.65905e-05
5 *243:B1 *243:C1 0.000190429
6 *61:6 *243:C1 0.00012657
7 *63:6 *243:C1 0.000102939
*RES
1 *241:X *243:C1 8.945 
*END

*D_NET *65 0.000425992
*CONN
*I *245:B I *D sky130_fd_sc_hd__and2_1
*I *244:X O *D sky130_fd_sc_hd__or3_1
*CAP
1 *245:B 0.000118778
2 *244:X 0.000118778