*SPEF "ieee 1481-1999"
*DESIGN "SARSANSTEPS_VENTAJA_e7"
*DATE "13:53:14 Tuesday September 16, 2025"
*VENDOR "The OpenROAD Project"
*PROGRAM "OpenROAD"
*VERSION "edf00dff99f6c40d67a30c0e22a8191c5d2ed9d6"
*DESIGN_FLOW "NAME_SCOPE LOCAL" "PIN_CAP NONE"
*DIVIDER /
*DELIMITER :
*BUS_DELIMITER []
*T_UNIT 1 NS
*C_UNIT 1 PF
*R_UNIT 1 OHM
*L_UNIT 1 HENRY

*NAME_MAP
*1 A[0]
*2 A[1]
*3 B[0]
*4 B[1]
*5 P[0]
*6 P[1]
*7 P[2]
*8 net8
*11 net1
*12 net2
*13 net3
*14 net4
*15 net5
*16 net6
*17 net7
*18 FILLER_0_15
*19 FILLER_0_27
*20 FILLER_0_29
*21 FILLER_0_3
*22 FILLER_0_41
*23 FILLER_0_53
*24 FILLER_0_57
*25 FILLER_0_69
*26 FILLER_1_15
*27 FILLER_1_27
*28 FILLER_1_3
*29 FILLER_1_39
*30 FILLER_1_51
*31 FILLER_1_55
*32 FILLER_1_57
*33 FILLER_1_69
*34 FILLER_2_18
*35 FILLER_2_26
*36 FILLER_2_29
*37 FILLER_2_41
*38 FILLER_2_53
*39 FILLER_2_6
*40 FILLER_2_65
*41 FILLER_2_77
*42 FILLER_3_11
*43 FILLER_3_17
*44 FILLER_3_29
*45 FILLER_3_3
*46 FILLER_3_41
*47 FILLER_3_53
*48 FILLER_3_57
*49 FILLER_3_69
*50 FILLER_4_26
*51 FILLER_4_29
*52 FILLER_4_41
*53 FILLER_4_53
*54 FILLER_4_6
*55 FILLER_4_65
*56 FILLER_5_19
*57 FILLER_5_31
*58 FILLER_5_43
*59 FILLER_5_55
*60 FILLER_5_57
*61 FILLER_5_69
*62 FILLER_5_7
*63 FILLER_6_18
*64 FILLER_6_26
*65 FILLER_6_29
*66 FILLER_6_41
*67 FILLER_6_53
*68 FILLER_6_6
*69 FILLER_6_65
*70 FILLER_6_77
*71 FILLER_7_18
*72 FILLER_7_30
*73 FILLER_7_42
*74 FILLER_7_54
*75 FILLER_7_57
*76 FILLER_7_6
*77 FILLER_7_69
*78 FILLER_8_15
*79 FILLER_8_27
*80 FILLER_8_29
*81 FILLER_8_3
*82 FILLER_8_41
*83 FILLER_8_53
*84 FILLER_8_65
*85 FILLER_8_77
*86 FILLER_9_15
*87 FILLER_9_27
*88 FILLER_9_29
*89 FILLER_9_3
*90 FILLER_9_41
*91 FILLER_9_53
*92 FILLER_9_57
*93 FILLER_9_69
*94 PHY_EDGE_ROW_0_Left_10
*95 PHY_EDGE_ROW_0_Right_0
*96 PHY_EDGE_ROW_1_Left_11
*97 PHY_EDGE_ROW_1_Right_1
*98 PHY_EDGE_ROW_2_Left_12
*99 PHY_EDGE_ROW_2_Right_2
*100 PHY_EDGE_ROW_3_Left_13
*101 PHY_EDGE_ROW_3_Right_3
*102 PHY_EDGE_ROW_4_Left_14
*103 PHY_EDGE_ROW_4_Right_4
*104 PHY_EDGE_ROW_5_Left_15
*105 PHY_EDGE_ROW_5_Right_5
*106 PHY_EDGE_ROW_6_Left_16
*107 PHY_EDGE_ROW_6_Right_6
*108 PHY_EDGE_ROW_7_Left_17
*109 PHY_EDGE_ROW_7_Right_7
*110 PHY_EDGE_ROW_8_Left_18
*111 PHY_EDGE_ROW_8_Right_8
*112 PHY_EDGE_ROW_9_Left_19
*113 PHY_EDGE_ROW_9_Right_9
*114 SARSANSTEPS_VENTAJA_e7_8
*115 TAP_TAPCELL_ROW_0_20
*116 TAP_TAPCELL_ROW_0_21
*117 TAP_TAPCELL_ROW_1_22
*118 TAP_TAPCELL_ROW_2_23
*119 TAP_TAPCELL_ROW_3_24
*120 TAP_TAPCELL_ROW_4_25
*121 TAP_TAPCELL_ROW_5_26
*122 TAP_TAPCELL_ROW_6_27
*123 TAP_TAPCELL_ROW_7_28
*124 TAP_TAPCELL_ROW_8_29
*125 TAP_TAPCELL_ROW_9_30
*126 TAP_TAPCELL_ROW_9_31
*127 _0_
*128 _1_
*129 _2_
*130 input1
*131 input2
*132 input3
*133 input4
*134 output5
*135 output6
*136 output7

*PORTS
A[0] I
A[1] I
B[0] I
B[1] I
P[0] O
P[1] O
P[2] O
P[3] O

*D_NET *1 0.000666589
*CONN
*P A[0] I
*I *130:A I *D sky130_fd_sc_hd__buf_1
*CAP
1 A[0] 0.000320228
2 *130:A 0
3 *1:17 0.000320228
4 *1:17 *4:17 2.61329e-05
*RES
1 A[0] *1:17 27.1584 
2 *1:17 *130:A 23 
*END

*D_NET *2 0.000616196
*CONN
*P A[1] I
*I *131:A I *D sky130_fd_sc_hd__clkbuf_1
*CAP
1 A[1] 0.000297475
2 *131:A 0.000297475
3 *131:A *132:A 2.12457e-05
*RES
1 A[1] *131:A 49.8062 
*END

*D_NET *3 0.000565851
*CONN
*P B[0] I
*I *132:A I *D sky130_fd_sc_hd__buf_1
*CAP
1 B[0] 0.000239119
2 *132:A 0.000239119
3 *132:A P[1] 1.5289e-05
4 *132:A *6:14 1.26232e-05
5 *132:A *12:8 3.84556e-05
6 *131:A *132:A 2.12457e-05
*RES
1 B[0] *132:A 47.7832 
*END

*D_NET *4 0.000747356
*CONN
*P B[1] I
*I *133:A I *D sky130_fd_sc_hd__clkbuf_1
*CAP
1 B[1] 0.000346167
2 *133:A 0
3 *4:17 0.000346167
4 *4:17 P[1] 2.43221e-05
5 *4:17 *6:14 4.56684e-06
6 *4:17 *14:8 0
7 *1:17 *4:17 2.61329e-05
*RES
1 B[1] *4:17 28.2148 
2 *4:17 *133:A 23 
*END

*D_NET *5 0.000688781
*CONN
*P P[0] O
*I *134:X O *D sky130_fd_sc_hd__buf_2
*CAP
1 P[0] 0.000268321
2 *134:X 0.000268321
3 P[0] P[2] 8.73764e-05
4 P[0] *17:10 6.47626e-05
*RES
1 *134:X P[0] 48.5734 
*END

*D_NET *6 0.000763907
*CONN
*P P[1] O
*I *135:X O *D sky130_fd_sc_hd__buf_2
*CAP
1 P[1] 7.58295e-05
2 *135:X 0.000277724
3 *6:14 0.000353553
4 *132:A P[1] 1.5289e-05
5 *132:A *6:14 1.26232e-05
6 *4:17 P[1] 2.43221e-05
7 *4:17 *6:14 4.56684e-06
*RES
1 *135:X *6:14 49.9 
2 *6:14 P[1] 0.382667 
*END

*D_NET *7 0.000619541
*CONN
*P P[2] O
*I *136:X O *D sky130_fd_sc_hd__buf_2
*CAP
1 P[2] 0.000207794
2 *136:X 0.000207794
3 P[2] P[3] 8.06147e-05
4 P[2] *17:10 3.59619e-05
5 P[0] P[2] 8.73764e-05
*RES
1 *136:X P[2] 47.8691 
*END

*D_NET *8 0.00052467
*CONN
*P P[3] O
*I *114:LO O *D sky130_fd_sc_hd__conb_1
*CAP
1 P[3] 0.000222028
2 *114:LO 0.000222028
3 P[2] P[3] 8.06147e-05
*RES
1 *114:LO P[3] 47.7832 
*END

*D_NET *11 0.00178019
*CONN
*I *129:A I *D sky130_fd_sc_hd__xnor2_1
*I *127:A0 I *D sky130_fd_sc_hd__mux2_1
*I *130:X O *D sky130_fd_sc_hd__buf_1
*CAP
1 *129:A 0.000178441
2 *127:A0 0
3 *130:X 0.000547682
4 *11:12 0.000178441
5 *11:10 0.000547682
6 *129:A *127:A1 5.67058e-05
7 *129:A *129:B 0.000187129
8 *11:10 *12:18 8.41115e-05
*RES
1 *130:X *11:10 46.4514 
2 *11:10 *11:12 15 
3 *11:12 *127:A0 23 
4 *11:12 *129:A 27.3293 
*END

*D_NET *12 0.00186324
*CONN
*I *127:A1 I *D sky130_fd_sc_hd__mux2_1
*I *128:A I *D sky130_fd_sc_hd__and2_1
*I *131:X O *D sky130_fd_sc_hd__clkbuf_1
*CAP
1 *127:A1 7.79372e-05
2 *128:A 0
3 *131:X 0.000395405
4 *12:18 0.00016334
5 *12:12 0.000446577
6 *12:8 0.000600706
7 *12:8 *16:8 0
8 *12:18 *14:8 0
9 *129:A *127:A1 5.67058e-05
10 *132:A *12:8 3.84556e-05
11 *11:10 *12:18 8.41115e-05
*RES
1 *131:X *12:8 45.54 
2 *12:8 *12:12 18.48 
3 *12:12 *12:18 33.3143 
4 *12:18 *128:A 23 
5 *12:12 *127:A1 24.5743 
*END

*D_NET *13 0.00170183
*CONN
*I *129:B I *D sky130_fd_sc_hd__xnor2_1
*I *127:S I *D sky130_fd_sc_hd__mux2_1
*I *132:X O *D sky130_fd_sc_hd__buf_1
*CAP
1 *129:B 7.37912e-05
2 *127:S 0
3 *132:X 0.00068356
4 *13:12 7.37912e-05
5 *13:10 0.00068356
6 *13:10 *16:8 0
7 *129:A *129:B 0.000187129
*RES
1 *132:X *13:10 48.1086 
2 *13:10 *13:12 15 
3 *13:12 *127:S 23 
4 *13:12 *129:B 25.0507 
*END

*D_NET *14 0.000725431
*CONN
*I *128:B I *D sky130_fd_sc_hd__and2_1
*I *133:X O *D sky130_fd_sc_hd__clkbuf_1
*CAP
1 *128:B 0.00025862
2 *133:X 0.000104095
3 *14:8 0.000362715
4 *4:17 *14:8 0
5 *12:18 *14:8 0
*RES
1 *133:X *14:8 39.9057 
2 *14:8 *128:B 42.4329 
*END

*D_NET *15 0.00295704
*CONN
*I *134:A I *D sky130_fd_sc_hd__buf_2
*I *129:Y O *D sky130_fd_sc_hd__xnor2_1
*CAP
1 *134:A 0
2 *129:Y 0.00147852
3 *15:10 0.00147852
*RES
1 *129:Y *15:10 48.9136 
2 *15:10 *134:A 23 
*END

*D_NET *16 0.000484104
*CONN
*I *135:A I *D sky130_fd_sc_hd__buf_2
*I *127:X O *D sky130_fd_sc_hd__mux2_1
*CAP
1 *135:A 0.000119391
2 *127:X 0.000122661
3 *16:8 0.000242052
4 *12:8 *16:8 0
5 *13:10 *16:8 0
*RES
1 *127:X *16:8 40.2579 
2 *16:8 *135:A 40.0507 
*END

*D_NET *17 0.00387477
*CONN
*I *136:A I *D sky130_fd_sc_hd__buf_2
*I *128:X O *D sky130_fd_sc_hd__and2_1
*CAP
1 *136:A 0
2 *128:X 0
3 *17:10 0.00188702
4 *17:4 0.00188702
5 P[0] *17:10 6.47626e-05
6 P[2] *17:10 3.59619e-05
*RES
1 *128:X *17:4 23 
2 *17:4 *17:10 49.9864 
3 *17:10 *136:A 38 
*END
