*SPEF "ieee 1481-1999"
*DESIGN "SarsaNada_e10"
*DATE "18:17:07 Tuesday September 16, 2025"
*VENDOR "The OpenROAD Project"
*PROGRAM "OpenROAD"
*VERSION "edf00dff99f6c40d67a30c0e22a8191c5d2ed9d6"
*DESIGN_FLOW "NAME_SCOPE LOCAL" "PIN_CAP NONE"
*DIVIDER /
*DELIMITER :
*BUS_DELIMITER []
*T_UNIT 1 NS
*C_UNIT 1 PF
*R_UNIT 1 OHM
*L_UNIT 1 HENRY

*NAME_MAP
*1 A[0]
*2 A[1]
*3 B[0]
*4 B[1]
*5 P[0]
*6 P[1]
*7 P[2]
*8 P[3]
*11 _0_
*12 _1_
*13 net1
*14 net2
*15 net3
*16 net4
*17 net5
*18 net6
*19 net7
*20 net8
*21 FILLER_0_15
*22 FILLER_0_27
*23 FILLER_0_29
*24 FILLER_0_3
*25 FILLER_0_41
*26 FILLER_0_53
*27 FILLER_0_57
*28 FILLER_0_69
*29 FILLER_1_15
*30 FILLER_1_27
*31 FILLER_1_3
*32 FILLER_1_39
*33 FILLER_1_51
*34 FILLER_1_55
*35 FILLER_1_57
*36 FILLER_1_69
*37 FILLER_2_15
*38 FILLER_2_27
*39 FILLER_2_29
*40 FILLER_2_3
*41 FILLER_2_41
*42 FILLER_2_53
*43 FILLER_2_65
*44 FILLER_2_77
*45 FILLER_3_15
*46 FILLER_3_27
*47 FILLER_3_3
*48 FILLER_3_39
*49 FILLER_3_51
*50 FILLER_3_55
*51 FILLER_3_57
*52 FILLER_3_69
*53 FILLER_4_18
*54 FILLER_4_26
*55 FILLER_4_29
*56 FILLER_4_46
*57 FILLER_4_58
*58 FILLER_4_6
*59 FILLER_4_70
*60 FILLER_4_76
*61 FILLER_5_16
*62 FILLER_5_37
*63 FILLER_5_44
*64 FILLER_5_57
*65 FILLER_5_69
*66 FILLER_5_7
*67 FILLER_5_77
*68 FILLER_6_18
*69 FILLER_6_26
*70 FILLER_6_29
*71 FILLER_6_41
*72 FILLER_6_45
*73 FILLER_6_57
*74 FILLER_6_6
*75 FILLER_6_69
*76 FILLER_7_18
*77 FILLER_7_30
*78 FILLER_7_42
*79 FILLER_7_54
*80 FILLER_7_57
*81 FILLER_7_6
*82 FILLER_7_69
*83 FILLER_8_15
*84 FILLER_8_27
*85 FILLER_8_29
*86 FILLER_8_3
*87 FILLER_8_41
*88 FILLER_8_53
*89 FILLER_8_65
*90 FILLER_8_77
*91 FILLER_9_15
*92 FILLER_9_27
*93 FILLER_9_29
*94 FILLER_9_3
*95 FILLER_9_41
*96 FILLER_9_53
*97 FILLER_9_57
*98 FILLER_9_69
*99 PHY_EDGE_ROW_0_Left_10
*100 PHY_EDGE_ROW_0_Right_0
*101 PHY_EDGE_ROW_1_Left_11
*102 PHY_EDGE_ROW_1_Right_1
*103 PHY_EDGE_ROW_2_Left_12
*104 PHY_EDGE_ROW_2_Right_2
*105 PHY_EDGE_ROW_3_Left_13
*106 PHY_EDGE_ROW_3_Right_3
*107 PHY_EDGE_ROW_4_Left_14
*108 PHY_EDGE_ROW_4_Right_4
*109 PHY_EDGE_ROW_5_Left_15
*110 PHY_EDGE_ROW_5_Right_5
*111 PHY_EDGE_ROW_6_Left_16
*112 PHY_EDGE_ROW_6_Right_6
*113 PHY_EDGE_ROW_7_Left_17
*114 PHY_EDGE_ROW_7_Right_7
*115 PHY_EDGE_ROW_8_Left_18
*116 PHY_EDGE_ROW_8_Right_8
*117 PHY_EDGE_ROW_9_Left_19
*118 PHY_EDGE_ROW_9_Right_9
*119 TAP_TAPCELL_ROW_0_20
*120 TAP_TAPCELL_ROW_0_21
*121 TAP_TAPCELL_ROW_1_22
*122 TAP_TAPCELL_ROW_2_23
*123 TAP_TAPCELL_ROW_3_24
*124 TAP_TAPCELL_ROW_4_25
*125 TAP_TAPCELL_ROW_5_26
*126 TAP_TAPCELL_ROW_6_27
*127 TAP_TAPCELL_ROW_7_28
*128 TAP_TAPCELL_ROW_8_29
*129 TAP_TAPCELL_ROW_9_30
*130 TAP_TAPCELL_ROW_9_31
*131 _2_
*132 _3_
*133 _4_
*134 _5_
*135 _6_
*136 _7_
*137 input1
*138 input2
*139 input3
*140 input4
*141 output5
*142 output6
*143 output7
*144 output8

*PORTS
A[0] I
A[1] I
B[0] I
B[1] I
P[0] O
P[1] O
P[2] O
P[3] O

*D_NET *1 0.000616196
*CONN
*P A[0] I
*I *137:A I *D sky130_fd_sc_hd__buf_1
*CAP
1 A[0] 0.000297475
2 *137:A 0.000297475
3 *137:A *138:A 2.12457e-05
*RES
1 A[0] *137:A 49.8062 
*END

*D_NET *2 0.000571235
*CONN
*P A[1] I
*I *138:A I *D sky130_fd_sc_hd__buf_1
*CAP
1 A[1] 0.000261039
2 *138:A 0.000261039
3 *138:A P[3] 1.5289e-05
4 *138:A *8:14 1.26232e-05
5 *137:A *138:A 2.12457e-05
*RES
1 A[1] *138:A 47.7832 
*END

*D_NET *3 0.000733319
*CONN
*P B[0] I
*I *139:A I *D sky130_fd_sc_hd__buf_1
*CAP
1 B[0] 0.000352215
2 *139:A 0
3 *3:17 0.000352215
4 *3:17 P[3] 2.43221e-05
5 *3:17 *8:14 4.56684e-06
*RES
1 B[0] *3:17 28.2148 
2 *3:17 *139:A 23 
*END

*D_NET *4 0.000650413
*CONN
*P B[1] I
*I *140:A I *D sky130_fd_sc_hd__buf_1
*CAP
1 B[1] 0.000245778
2 *140:A 0.000245778
3 *140:A P[1] 7.82427e-05
4 *140:A P[2] 8.06147e-05
*RES
1 B[1] *140:A 48.8397 
*END

*D_NET *5 0.000516814
*CONN
*P P[0] O
*I *141:X O *D sky130_fd_sc_hd__buf_2
*CAP
1 P[0] 0.000218818
2 *141:X 0.000218818
3 P[0] P[1] 7.91783e-05
*RES
1 *141:X P[0] 47.1648 
*END

*D_NET *6 0.00053557
*CONN
*P P[1] O
*I *142:X O *D sky130_fd_sc_hd__buf_2
*CAP
1 P[1] 0.000182703
2 *142:X 0.000182703
3 P[1] P[2] 0
4 P[1] *18:12 1.27424e-05
5 P[0] P[1] 7.91783e-05
6 *140:A P[1] 7.82427e-05
*RES
1 *142:X P[1] 47.1648 
*END

*D_NET *7 0.000673452
*CONN
*P P[2] O
*I *143:X O *D sky130_fd_sc_hd__buf_2
*CAP
1 P[2] 0.000296419
2 *143:X 0.000296419
3 P[1] P[2] 0
4 *140:A P[2] 8.06147e-05
*RES
1 *143:X P[2] 48.5734 
*END

*D_NET *8 0.000763907
*CONN
*P P[3] O
*I *144:X O *D sky130_fd_sc_hd__buf_2
*CAP
1 P[3] 7.58295e-05
2 *144:X 0.000277724
3 *8:14 0.000353553
4 *138:A P[3] 1.5289e-05
5 *138:A *8:14 1.26232e-05
6 *3:17 P[3] 2.43221e-05
7 *3:17 *8:14 4.56684e-06
*RES
1 *144:X *8:14 49.9 
2 *8:14 P[3] 0.382667 
*END

*D_NET *11 0.0027621
*CONN
*I *135:C I *D sky130_fd_sc_hd__and3_1
*I *134:B I *D sky130_fd_sc_hd__nand2_1
*I *133:A I *D sky130_fd_sc_hd__inv_2
*I *132:Y O *D sky130_fd_sc_hd__nand4_2
*CAP
1 *135:C 4.47855e-05
2 *134:B 0
3 *133:A 0.000282437
4 *132:Y 0
5 *11:25 0.000172881
6 *11:17 0.000718971
7 *11:4 0.000783742
8 *133:A *13:16 5.50106e-05
9 *135:C *16:8 2.12505e-05
10 *135:C *16:10 4.44329e-05
11 *11:17 *131:A 0.000233146
12 *11:17 *132:A 0.000200735
13 *11:17 *13:16 4.7312e-05
14 *11:17 *16:10 5.73309e-05
15 *11:25 *14:21 0.000100069
*RES
1 *132:Y *11:4 23 
2 *11:4 *133:A 28.4064 
3 *11:4 *11:17 8.49286 
4 *11:17 *11:25 33.0036 
5 *11:25 *134:B 23 
6 *11:17 *135:C 23.7043 
*END

*D_NET *12 0.00118762
*CONN
*I *136:C I *D sky130_fd_sc_hd__and3_1
*I *131:Y O *D sky130_fd_sc_hd__nand2_1
*CAP
1 *136:C 0.000128297
2 *131:Y 0.000265259
3 *12:10 0.000393556
4 *136:C *14:38 5.17896e-06
5 *12:10 *135:B 0.000173025
6 *12:10 *13:16 5.72975e-05
7 *12:10 *16:36 0.000165003
*RES
1 *131:Y *12:10 42.785 
2 *12:10 *136:C 40.2993 
*END

*D_NET *13 0.00352398
*CONN
*I *132:D I *D sky130_fd_sc_hd__nand4_2
*I *135:B I *D sky130_fd_sc_hd__and3_1
*I *131:B I *D sky130_fd_sc_hd__nand2_1
*I *137:X O *D sky130_fd_sc_hd__buf_1
*CAP
1 *132:D 0
2 *135:B 9.30542e-05
3 *131:B 2.99493e-05
4 *137:X 0.00069492
5 *13:16 0.000462669
6 *13:10 0.000586024
7 *13:8 0.000941278
8 *131:B *132:A 3.85196e-05
9 *135:B *132:A 5.54555e-05
10 *135:B *16:10 3.00067e-05
11 *13:10 *14:12 7.03663e-05
12 *13:16 *131:A 6.47181e-05
13 *13:16 *132:A 0.000118296
14 *13:16 *14:12 6.07611e-06
15 *13:16 *15:12 0
16 *133:A *13:16 5.50106e-05
17 *11:17 *13:16 4.7312e-05
18 *12:10 *135:B 0.000173025
19 *12:10 *13:16 5.72975e-05
*RES
1 *137:X *13:8 47.1971 
2 *13:8 *13:10 4.72286 
3 *13:10 *13:16 21.7114 
4 *13:16 *131:B 23.8493 
5 *13:16 *135:B 26.0243 
6 *13:10 *132:D 38 
*END

*D_NET *14 0.00394269
*CONN
*I *136:B I *D sky130_fd_sc_hd__and3_1
*I *134:A I *D sky130_fd_sc_hd__nand2_1
*I *132:C I *D sky130_fd_sc_hd__nand4_2
*I *138:X O *D sky130_fd_sc_hd__buf_1
*CAP
1 *136:B 0
2 *134:A 2.30556e-05
3 *132:C 0
4 *138:X 0.000774219
5 *14:38 0.000403167
6 *14:21 0.000973209
7 *14:12 0.000130366
8 *14:6 0.00145157
9 *14:12 *15:12 4.21594e-06
10 *14:38 *19:10 1.19208e-06
11 *136:C *14:38 5.17896e-06
12 *11:25 *14:21 0.000100069
13 *13:10 *14:12 7.03663e-05
14 *13:16 *14:12 6.07611e-06
*RES
1 *138:X *14:6 33.15 
2 *14:6 *14:12 31.9057 
3 *14:12 *132:C 23 
4 *14:6 *14:21 9.21786 
5 *14:21 *134:A 23.4971 
6 *14:21 *14:38 36.09 
7 *14:38 *136:B 23 
*END

*D_NET *15 0.00255871
*CONN
*I *131:A I *D sky130_fd_sc_hd__nand2_1
*I *132:B I *D sky130_fd_sc_hd__nand4_2
*I *139:X O *D sky130_fd_sc_hd__buf_1
*CAP
1 *131:A 7.5398e-05
2 *132:B 0
3 *139:X 0.000867909
4 *15:12 0.000219425
5 *15:8 0.00101194
6 *131:A *132:A 8.19596e-05
7 *11:17 *131:A 0.000233146
8 *13:16 *131:A 6.47181e-05
9 *13:16 *15:12 0
10 *14:12 *15:12 4.21594e-06
*RES
1 *139:X *15:8 49.5793 
2 *15:8 *15:12 17.2579 
3 *15:12 *132:B 23 
4 *15:12 *131:A 26.5214 
*END

*D_NET *16 0.00418295
*CONN
*I *136:A I *D sky130_fd_sc_hd__and3_1
*I *135:A I *D sky130_fd_sc_hd__and3_1
*I *132:A I *D sky130_fd_sc_hd__nand4_2
*I *140:X O *D sky130_fd_sc_hd__buf_1
*CAP
1 *136:A 0
2 *135:A 0
3 *132:A 8.15096e-05
4 *140:X 0.000596307
5 *16:36 0.0002388
6 *16:10 0.000104701
7 *16:8 0.000858299
8 *16:8 *18:6 0.00149034
9 *131:A *132:A 8.19596e-05
10 *131:B *132:A 3.85196e-05
11 *135:B *132:A 5.54555e-05
12 *135:B *16:10 3.00067e-05
13 *135:C *16:8 2.12505e-05
14 *135:C *16:10 4.44329e-05
15 *11:17 *132:A 0.000200735
16 *11:17 *16:10 5.73309e-05
17 *12:10 *16:36 0.000165003
18 *13:16 *132:A 0.000118296
*RES
1 *140:X *16:8 41.27 
2 *16:8 *16:10 1.09786 
3 *16:10 *132:A 27.495 
4 *16:10 *135:A 23 
5 *16:8 *16:36 34.1636 
6 *16:36 *136:A 23 
*END

*D_NET *17 0.00203241
*CONN
*I *141:A I *D sky130_fd_sc_hd__buf_2
*I *134:Y O *D sky130_fd_sc_hd__nand2_1
*CAP
1 *141:A 0
2 *134:Y 0.000127718
3 *17:12 0.000888487
4 *17:8 0.0010162
*RES
1 *134:Y *17:8 40.2579 
2 *17:8 *17:12 31.3436 
3 *17:12 *141:A 23 
*END

*D_NET *18 0.00360742
*CONN
*I *142:A I *D sky130_fd_sc_hd__buf_2
*I *135:X O *D sky130_fd_sc_hd__and3_1
*CAP
1 *142:A 0
2 *135:X 0.000940497
3 *18:12 0.00011167
4 *18:6 0.00105217
5 P[1] *18:12 1.27424e-05
6 *16:8 *18:6 0.00149034
*RES
1 *135:X *18:6 39.3436 
2 *18:6 *18:12 31.9057 
3 *18:12 *142:A 23 
*END

*D_NET *19 0.00209468
*CONN
*I *143:A I *D sky130_fd_sc_hd__buf_2
*I *136:X O *D sky130_fd_sc_hd__and3_1
*CAP
1 *143:A 0
2 *136:X 0.00104675
3 *19:10 0.00104675
4 *14:38 *19:10 1.19208e-06
*RES
1 *136:X *19:10 39.385 
2 *19:10 *143:A 23 
*END

*D_NET *20 0.000425958
*CONN
*I *144:A I *D sky130_fd_sc_hd__buf_2
*I *133:Y O *D sky130_fd_sc_hd__inv_2
*CAP
1 *144:A 0.000212979
2 *133:Y 0.000212979
*RES
1 *133:Y *144:A 49.9564 
*END
