*SPEF "ieee 1481-1999"
*DESIGN "SarsaNStepsRuido_e9"
*DATE "09:54:55 Friday September 12, 2025"
*VENDOR "The OpenROAD Project"
*PROGRAM "OpenROAD"
*VERSION "edf00dff99f6c40d67a30c0e22a8191c5d2ed9d6"
*DESIGN_FLOW "NAME_SCOPE LOCAL" "PIN_CAP NONE"
*DIVIDER /
*DELIMITER :
*BUS_DELIMITER []
*T_UNIT 1 NS
*C_UNIT 1 PF
*R_UNIT 1 OHM
*L_UNIT 1 HENRY

*NAME_MAP
*1 A[0]
*2 A[1]
*3 B[0]
*4 B[1]
*5 net8
*6 P[1]
*7 P[2]
*8 P[3]
*11 _00_
*12 _01_
*13 _02_
*14 _03_
*15 net1
*16 net2
*17 net3
*18 net4
*19 net5
*20 net6
*21 net7
*22 FILLER_0_15
*23 FILLER_0_27
*24 FILLER_0_29
*25 FILLER_0_3
*26 FILLER_0_34
*27 FILLER_0_41
*28 FILLER_0_49
*29 FILLER_0_55
*30 FILLER_0_57
*31 FILLER_0_69
*32 FILLER_1_15
*33 FILLER_1_21
*34 FILLER_1_3
*35 FILLER_1_31
*36 FILLER_1_43
*37 FILLER_1_55
*38 FILLER_1_57
*39 FILLER_1_69
*40 FILLER_2_16
*41 FILLER_2_29
*42 FILLER_2_3
*43 FILLER_2_41
*44 FILLER_2_53
*45 FILLER_2_65
*46 FILLER_2_77
*47 FILLER_3_15
*48 FILLER_3_27
*49 FILLER_3_3
*50 FILLER_3_39
*51 FILLER_3_51
*52 FILLER_3_55
*53 FILLER_3_57
*54 FILLER_3_69
*55 FILLER_4_15
*56 FILLER_4_27
*57 FILLER_4_3
*58 FILLER_4_36
*59 FILLER_4_48
*60 FILLER_4_60
*61 FILLER_4_72
*62 FILLER_4_80
*63 FILLER_5_18
*64 FILLER_5_24
*65 FILLER_5_28
*66 FILLER_5_40
*67 FILLER_5_52
*68 FILLER_5_57
*69 FILLER_5_6
*70 FILLER_5_69
*71 FILLER_6_18
*72 FILLER_6_26
*73 FILLER_6_33
*74 FILLER_6_45
*75 FILLER_6_57
*76 FILLER_6_6
*77 FILLER_6_69
*78 FILLER_7_15
*79 FILLER_7_27
*80 FILLER_7_3
*81 FILLER_7_39
*82 FILLER_7_51
*83 FILLER_7_55
*84 FILLER_7_57
*85 FILLER_7_69
*86 FILLER_8_15
*87 FILLER_8_27
*88 FILLER_8_29
*89 FILLER_8_3
*90 FILLER_8_41
*91 FILLER_8_53
*92 FILLER_8_65
*93 FILLER_8_77
*94 FILLER_9_18
*95 FILLER_9_26
*96 FILLER_9_29
*97 FILLER_9_37
*98 FILLER_9_42
*99 FILLER_9_49
*100 FILLER_9_55
*101 FILLER_9_57
*102 FILLER_9_6
*103 FILLER_9_69
*104 PHY_EDGE_ROW_0_Left_10
*105 PHY_EDGE_ROW_0_Right_0
*106 PHY_EDGE_ROW_1_Left_11
*107 PHY_EDGE_ROW_1_Right_1
*108 PHY_EDGE_ROW_2_Left_12
*109 PHY_EDGE_ROW_2_Right_2
*110 PHY_EDGE_ROW_3_Left_13
*111 PHY_EDGE_ROW_3_Right_3
*112 PHY_EDGE_ROW_4_Left_14
*113 PHY_EDGE_ROW_4_Right_4
*114 PHY_EDGE_ROW_5_Left_15
*115 PHY_EDGE_ROW_5_Right_5
*116 PHY_EDGE_ROW_6_Left_16
*117 PHY_EDGE_ROW_6_Right_6
*118 PHY_EDGE_ROW_7_Left_17
*119 PHY_EDGE_ROW_7_Right_7
*120 PHY_EDGE_ROW_8_Left_18
*121 PHY_EDGE_ROW_8_Right_8
*122 PHY_EDGE_ROW_9_Left_19
*123 PHY_EDGE_ROW_9_Right_9
*124 SarsaNStepsRuido_e9_8
*125 TAP_TAPCELL_ROW_0_20
*126 TAP_TAPCELL_ROW_0_21
*127 TAP_TAPCELL_ROW_1_22
*128 TAP_TAPCELL_ROW_2_23
*129 TAP_TAPCELL_ROW_3_24
*130 TAP_TAPCELL_ROW_4_25
*131 TAP_TAPCELL_ROW_5_26
*132 TAP_TAPCELL_ROW_6_27
*133 TAP_TAPCELL_ROW_7_28
*134 TAP_TAPCELL_ROW_8_29
*135 TAP_TAPCELL_ROW_9_30
*136 TAP_TAPCELL_ROW_9_31
*137 _04_
*138 _05_
*139 _06_
*140 _07_
*141 _08_
*142 _09_
*143 _10_
*144 input1
*145 input2
*146 input3
*147 input4
*148 output5
*149 output6
*150 output7

*PORTS
A[0] I
A[1] I
B[0] I
B[1] I
P[0] O
P[1] O
P[2] O
P[3] O

*D_NET *1 0.00084331
*CONN
*P A[0] I
*I *144:A I *D sky130_fd_sc_hd__buf_1
*CAP
1 A[0] 0.000421655
2 *144:A 0.000421655
3 *144:A *145:A 0
*RES
1 A[0] *144:A 21.8357 
*END

*D_NET *2 0.000948162
*CONN
*P A[1] I
*I *145:A I *D sky130_fd_sc_hd__buf_1
*CAP
1 A[1] 0.000474081
2 *145:A 0.000474081
3 *145:A P[1] 0
4 *144:A *145:A 0
*RES
1 A[1] *145:A 22.6571 
*END

*D_NET *3 0.00053091
*CONN
*P B[0] I
*I *146:A I *D sky130_fd_sc_hd__buf_1
*CAP
1 B[0] 0.000251071
2 *146:A 0.000251071
3 *146:A P[0] 0
4 *146:A *147:A 2.87684e-05
*RES
1 B[0] *146:A 18.73 
*END

*D_NET *4 0.000672993
*CONN
*P B[1] I
*I *147:A I *D sky130_fd_sc_hd__buf_1
*CAP
1 B[1] 0.000322112
2 *147:A 0.000322112
3 *146:A *147:A 2.87684e-05
*RES
1 B[1] *147:A 21.391 
*END

*D_NET *5 0.000584036
*CONN
*P P[0] O
*I *124:LO O *D sky130_fd_sc_hd__conb_1
*CAP
1 P[0] 0.000292018
2 *124:LO 0.000292018
3 *146:A P[0] 0
*RES
1 *124:LO P[0] 19.3371 
*END

*D_NET *6 0.000932591
*CONN
*P P[1] O
*I *148:X O *D sky130_fd_sc_hd__buf_2
*CAP
1 P[1] 0.000466295
2 *148:X 0.000466295
3 *145:A P[1] 0
*RES
1 *148:X P[1] 22.3 
*END

*D_NET *7 0.000954247
*CONN
*P P[2] O
*I *149:X O *D sky130_fd_sc_hd__buf_2
*CAP
1 P[2] 0.000477123
2 *149:X 0.000477123
3 P[2] P[3] 0
*RES
1 *149:X P[2] 23.2643 
*END

*D_NET *8 0.00095307
*CONN
*P P[3] O
*I *150:X O *D sky130_fd_sc_hd__buf_2
*CAP
1 P[3] 0.000476535
2 *150:X 0.000476535
3 P[2] P[3] 0
*RES
1 *150:X P[3] 23.2643 
*END

*D_NET *11 0.00080916
*CONN
*I *143:A1 I *D sky130_fd_sc_hd__a21oi_1
*I *140:Y O *D sky130_fd_sc_hd__nand3_1
*CAP
1 *143:A1 0.000287194
2 *140:Y 0.000287194
3 *143:A1 *141:D 0.000100625
4 *143:A1 *142:A 5.5782e-05
5 *143:A1 *143:A2 7.83659e-05
6 *143:A1 *21:12 0
*RES
1 *140:Y *143:A1 32.8321 
*END

*D_NET *12 0.000406128
*CONN
*I *143:A2 I *D sky130_fd_sc_hd__a21oi_1
*I *142:Y O *D sky130_fd_sc_hd__nand2_1
*CAP
1 *143:A2 0.000163881
2 *142:Y 0.000163881
3 *143:A2 *21:12 0
4 *143:A1 *143:A2 7.83659e-05
*RES
1 *142:Y *143:A2 30.1893 
*END

*D_NET *13 0.000380175
*CONN
*I *139:B1 I *D sky130_fd_sc_hd__a31oi_1
*I *137:Y O *D sky130_fd_sc_hd__a21oi_1
*CAP
1 *139:B1 0.000162115
2 *137:Y 0.000162115
3 *139:B1 *139:A1 3.13569e-05
4 *139:B1 *139:A2 1.42135e-05
5 *139:B1 *139:A3 0
6 *139:B1 *15:10 0
7 *139:B1 *15:14 1.03742e-05
*RES
1 *137:Y *139:B1 29.7607 
*END

*D_NET *14 0.000771192
*CONN
*I *139:A3 I *D sky130_fd_sc_hd__a31oi_1
*I *138:Y O *D sky130_fd_sc_hd__nand2b_1
*CAP
1 *139:A3 0.00035046
2 *138:Y 0.00035046
3 *139:A3 *138:A_N 1.39726e-05
4 *139:A3 *138:B 5.62995e-05
5 *139:A3 *16:36 0
6 *139:B1 *139:A3 0
*RES
1 *138:Y *139:A3 32.2429 
*END

*D_NET *15 0.0030573
*CONN
*I *141:C I *D sky130_fd_sc_hd__and4_1
*I *140:C I *D sky130_fd_sc_hd__nand3_1
*I *137:B1 I *D sky130_fd_sc_hd__a21oi_1
*I *139:A2 I *D sky130_fd_sc_hd__a31oi_1
*I *144:X O *D sky130_fd_sc_hd__buf_1
*CAP
1 *141:C 0
2 *140:C 0.000288545
3 *137:B1 0
4 *139:A2 3.60727e-05
5 *144:X 0.000199998
6 *15:30 0.000526035
7 *15:14 0.00012262
8 *15:10 0.000524036
9 *139:A2 *137:A1 0.000188586
10 *139:A2 *139:A1 5.15476e-05
11 *140:C *140:B 0.00010096
12 *140:C *141:D 1.21258e-05
13 *140:C *16:38 0.000173328
14 *140:C *17:38 4.88637e-05
15 *15:10 *16:36 3.17148e-05
16 *15:14 *137:A1 0.00010096
17 *15:14 *139:A1 3.79027e-05
18 *15:14 *16:12 5.33005e-05
19 *15:14 *16:14 5.52238e-05
20 *15:30 *16:36 0.000480893
21 *139:B1 *139:A2 1.42135e-05
22 *139:B1 *15:10 0
23 *139:B1 *15:14 1.03742e-05
*RES
1 *144:X *15:10 16.5857 
2 *15:10 *15:14 6.67857 
3 *15:14 *139:A2 11.0679 
4 *15:14 *137:B1 9.3 
5 *15:10 *15:30 10.6964 
6 *15:30 *140:C 13.55 
7 *15:30 *141:C 9.3 
*END

*D_NET *16 0.00337084
*CONN
*I *141:B I *D sky130_fd_sc_hd__and4_1
*I *142:A I *D sky130_fd_sc_hd__nand2_1
*I *140:B I *D sky130_fd_sc_hd__nand3_1
*I *137:A2 I *D sky130_fd_sc_hd__a21oi_1
*I *139:A1 I *D sky130_fd_sc_hd__a31oi_1
*I *145:X O *D sky130_fd_sc_hd__buf_1
*CAP
1 *141:B 0
2 *142:A 0.000165423
3 *140:B 1.37855e-05
4 *137:A2 0
5 *139:A1 0.000116398
6 *145:X 0.000261181
7 *16:38 0.000210399
8 *16:36 0.000306917
9 *16:14 0.000126438
10 *16:12 0.000546947
11 *139:A1 *148:A 0.000188586
12 *140:B *141:A 4.18895e-05
13 *140:B *17:38 5.71472e-05
14 *142:A *17:10 0
15 *142:A *17:12 0
16 *16:12 *148:A 0.000101347
17 *16:14 *148:A 1.74352e-05
18 *16:38 *141:A 9.90431e-05
19 *16:38 *141:D 4.58976e-05
20 *139:A2 *139:A1 5.15476e-05
21 *139:A3 *16:36 0
22 *139:B1 *139:A1 3.13569e-05
23 *140:C *140:B 0.00010096
24 *140:C *16:38 0.000173328
25 *143:A1 *142:A 5.5782e-05
26 *15:10 *16:36 3.17148e-05
27 *15:14 *139:A1 3.79027e-05
28 *15:14 *16:12 5.33005e-05
29 *15:14 *16:14 5.52238e-05
30 *15:30 *16:36 0.000480893
*RES
1 *145:X *16:12 23.2464 
2 *16:12 *16:14 0.535714 
3 *16:14 *139:A1 13.05 
4 *16:14 *137:A2 9.3 
5 *16:12 *16:36 15.8036 
6 *16:36 *16:38 1.76786 
7 *16:38 *140:B 10.2464 
8 *16:38 *142:A 21.4607 
9 *16:36 *141:B 9.3 
*END

*D_NET *17 0.0050897
*CONN
*I *141:A I *D sky130_fd_sc_hd__and4_1
*I *140:A I *D sky130_fd_sc_hd__nand3_1
*I *138:A_N I *D sky130_fd_sc_hd__nand2b_1
*I *137:A1 I *D sky130_fd_sc_hd__a21oi_1
*I *146:X O *D sky130_fd_sc_hd__buf_1
*CAP
1 *141:A 2.5344e-05
2 *140:A 0
3 *138:A_N 0.000164904
4 *137:A1 0.000466582
5 *146:X 0.00067857
6 *17:38 0.000125365
7 *17:12 0.000803824
8 *17:10 0.000950929
9 *137:A1 *138:B 3.17148e-05
10 *138:A_N *138:B 0.000200949
11 *141:A *141:D 0.00014183
12 *17:10 *138:B 2.31791e-05
13 *17:10 *18:12 0.000201127
14 *17:12 *138:B 0.000362997
15 *17:38 *141:D 0.00036192
16 *139:A2 *137:A1 0.000188586
17 *139:A3 *138:A_N 1.39726e-05
18 *140:B *141:A 4.18895e-05
19 *140:B *17:38 5.71472e-05
20 *140:C *17:38 4.88637e-05
21 *142:A *17:10 0
22 *142:A *17:12 0
23 *15:14 *137:A1 0.00010096
24 *16:38 *141:A 9.90431e-05
*RES
1 *146:X *17:10 23.6393 
2 *17:10 *17:12 4.67857 
3 *17:12 *137:A1 20.3893 
4 *17:12 *138:A_N 17.2286 
5 *17:10 *17:38 7.91071 
6 *17:38 *140:A 9.3 
7 *17:38 *141:A 10.6571 
*END

*D_NET *18 0.00418169
*CONN
*I *142:B I *D sky130_fd_sc_hd__nand2_1
*I *141:D I *D sky130_fd_sc_hd__and4_1
*I *138:B I *D sky130_fd_sc_hd__nand2b_1
*I *147:X O *D sky130_fd_sc_hd__buf_1
*CAP
1 *142:B 0.000211802
2 *141:D 0.000409292
3 *138:B 0.000253235
4 *147:X 0.000344371
5 *18:12 0.000761738
6 *18:8 0.000655384
7 *141:D *21:12 7.20217e-06
8 *137:A1 *138:B 3.17148e-05
9 *138:A_N *138:B 0.000200949
10 *139:A3 *138:B 5.62995e-05
11 *140:C *141:D 1.21258e-05
12 *141:A *141:D 0.00014183
13 *143:A1 *141:D 0.000100625
14 *16:38 *141:D 4.58976e-05
15 *17:10 *138:B 2.31791e-05
16 *17:10 *18:12 0.000201127
17 *17:12 *138:B 0.000362997
18 *17:38 *141:D 0.00036192
*RES
1 *147:X *18:8 15.0857 
2 *18:8 *18:12 7.05357 
3 *18:12 *138:B 20.9875 
4 *18:12 *141:D 23.3 
5 *18:8 *142:B 12.7107 
*END

*D_NET *19 0.00180518
*CONN
*I *148:A I *D sky130_fd_sc_hd__buf_2
*I *139:Y O *D sky130_fd_sc_hd__a31oi_1
*CAP
1 *148:A 0.000748904
2 *139:Y 0.000748904
3 *139:A1 *148:A 0.000188586
4 *16:12 *148:A 0.000101347
5 *16:14 *148:A 1.74352e-05
*RES
1 *139:Y *148:A 37.475 
*END

*D_NET *20 0.00124553
*CONN
*I *149:A I *D sky130_fd_sc_hd__buf_2
*I *143:Y O *D sky130_fd_sc_hd__a21oi_1
*CAP
1 *149:A 0.000571926
2 *143:Y 0.000571926
3 *149:A *143:B1 9.7992e-05
4 *149:A *150:A 3.69047e-06
*RES
1 *143:Y *149:A 36.9929 
*END

*D_NET *21 0.00229219
*CONN
*I *150:A I *D sky130_fd_sc_hd__buf_2
*I *143:B1 I *D sky130_fd_sc_hd__a21oi_1
*I *141:X O *D sky130_fd_sc_hd__and4_1
*CAP
1 *150:A 0.000625757
2 *143:B1 0.00011984
3 *141:X 0.000346055
4 *21:12 0.00109165
5 *141:D *21:12 7.20217e-06
6 *143:A1 *21:12 0
7 *143:A2 *21:12 0
8 *149:A *143:B1 9.7992e-05
9 *149:A *150:A 3.69047e-06
*RES
1 *141:X *21:12 23.7286 
2 *21:12 *143:B1 11.8893 
3 *21:12 *150:A 29.0143 
*END
