*SPEF "ieee 1481-1999"
*DESIGN "Sarsa_Ruido_e9_1"
*DATE "11:49:45 Friday September 12, 2025"
*VENDOR "The OpenROAD Project"
*PROGRAM "OpenROAD"
*VERSION "edf00dff99f6c40d67a30c0e22a8191c5d2ed9d6"
*DESIGN_FLOW "NAME_SCOPE LOCAL" "PIN_CAP NONE"
*DIVIDER /
*DELIMITER :
*BUS_DELIMITER []
*T_UNIT 1 NS
*C_UNIT 1 PF
*R_UNIT 1 OHM
*L_UNIT 1 HENRY

*NAME_MAP
*1 A[0]
*2 A[1]
*3 B[0]
*4 B[1]
*5 P[0]
*6 P[1]
*7 P[2]
*8 P[3]
*11 _00_
*12 _01_
*13 _02_
*14 _03_
*15 _04_
*16 _05_
*17 _06_
*18 _07_
*19 _08_
*20 net1
*21 net2
*22 net3
*23 net4
*24 net5
*25 net6
*26 net7
*27 net8
*28 FILLER_0_15
*29 FILLER_0_27
*30 FILLER_0_29
*31 FILLER_0_3
*32 FILLER_0_41
*33 FILLER_0_53
*34 FILLER_0_57
*35 FILLER_0_69
*36 FILLER_1_15
*37 FILLER_1_27
*38 FILLER_1_3
*39 FILLER_1_39
*40 FILLER_1_51
*41 FILLER_1_55
*42 FILLER_1_57
*43 FILLER_1_69
*44 FILLER_2_13
*45 FILLER_2_25
*46 FILLER_2_29
*47 FILLER_2_41
*48 FILLER_2_53
*49 FILLER_2_65
*50 FILLER_2_77
*51 FILLER_3_15
*52 FILLER_3_3
*53 FILLER_3_31
*54 FILLER_3_43
*55 FILLER_3_55
*56 FILLER_3_57
*57 FILLER_3_69
*58 FILLER_4_18
*59 FILLER_4_26
*60 FILLER_4_44
*61 FILLER_4_56
*62 FILLER_4_6
*63 FILLER_4_63
*64 FILLER_4_75
*65 FILLER_5_18
*66 FILLER_5_30
*67 FILLER_5_42
*68 FILLER_5_54
*69 FILLER_5_57
*70 FILLER_5_6
*71 FILLER_5_65
*72 FILLER_5_77
*73 FILLER_6_10
*74 FILLER_6_18
*75 FILLER_6_26
*76 FILLER_6_29
*77 FILLER_6_41
*78 FILLER_6_49
*79 FILLER_6_56
*80 FILLER_6_6
*81 FILLER_6_68
*82 FILLER_6_76
*83 FILLER_7_21
*84 FILLER_7_33
*85 FILLER_7_45
*86 FILLER_7_53
*87 FILLER_7_57
*88 FILLER_7_69
*89 FILLER_7_7
*90 FILLER_8_15
*91 FILLER_8_27
*92 FILLER_8_3
*93 FILLER_8_42
*94 FILLER_8_54
*95 FILLER_8_66
*96 FILLER_8_78
*97 FILLER_9_15
*98 FILLER_9_27
*99 FILLER_9_29
*100 FILLER_9_3
*101 FILLER_9_41
*102 FILLER_9_49
*103 FILLER_9_55
*104 FILLER_9_57
*105 FILLER_9_69
*106 PHY_EDGE_ROW_0_Left_10
*107 PHY_EDGE_ROW_0_Right_0
*108 PHY_EDGE_ROW_1_Left_11
*109 PHY_EDGE_ROW_1_Right_1
*110 PHY_EDGE_ROW_2_Left_12
*111 PHY_EDGE_ROW_2_Right_2
*112 PHY_EDGE_ROW_3_Left_13
*113 PHY_EDGE_ROW_3_Right_3
*114 PHY_EDGE_ROW_4_Left_14
*115 PHY_EDGE_ROW_4_Right_4
*116 PHY_EDGE_ROW_5_Left_15
*117 PHY_EDGE_ROW_5_Right_5
*118 PHY_EDGE_ROW_6_Left_16
*119 PHY_EDGE_ROW_6_Right_6
*120 PHY_EDGE_ROW_7_Left_17
*121 PHY_EDGE_ROW_7_Right_7
*122 PHY_EDGE_ROW_8_Left_18
*123 PHY_EDGE_ROW_8_Right_8
*124 PHY_EDGE_ROW_9_Left_19
*125 PHY_EDGE_ROW_9_Right_9
*126 TAP_TAPCELL_ROW_0_20
*127 TAP_TAPCELL_ROW_0_21
*128 TAP_TAPCELL_ROW_1_22
*129 TAP_TAPCELL_ROW_2_23
*130 TAP_TAPCELL_ROW_3_24
*131 TAP_TAPCELL_ROW_4_25
*132 TAP_TAPCELL_ROW_5_26
*133 TAP_TAPCELL_ROW_6_27
*134 TAP_TAPCELL_ROW_7_28
*135 TAP_TAPCELL_ROW_8_29
*136 TAP_TAPCELL_ROW_9_30
*137 TAP_TAPCELL_ROW_9_31
*138 _09_
*139 _10_
*140 _11_
*141 _12_
*142 _13_
*143 _14_
*144 _15_
*145 _16_
*146 _17_
*147 _18_
*148 _19_
*149 _20_
*150 _21_
*151 input1
*152 input2
*153 input3
*154 input4
*155 output5
*156 output6
*157 output7
*158 output8

*PORTS
A[0] I
A[1] I
B[0] I
B[1] I
P[0] O
P[1] O
P[2] O
P[3] O

*D_NET *1 0.000623243
*CONN
*P A[0] I
*I *151:A I *D sky130_fd_sc_hd__buf_1
*CAP
1 A[0] 0.00028255
2 *151:A 0.00028255
3 *151:A *153:A 2.85068e-05
4 *151:A *154:A 2.96366e-05
*RES
1 A[0] *151:A 7.5993 
*END

*D_NET *2 0.000537959
*CONN
*P A[1] I
*I *152:A I *D sky130_fd_sc_hd__dlymetal6s2s_1
*CAP
1 A[1] 0.00025548
2 *152:A 0.00025548
3 *152:A *154:A 2.69997e-05
*RES
1 A[1] *152:A 6.8343 
*END

*D_NET *3 0.000503623
*CONN
*P B[0] I
*I *153:A I *D sky130_fd_sc_hd__buf_1
*CAP
1 B[0] 0.000221853
2 *153:A 0.000221853
3 *153:A P[3] 3.14094e-05
4 *153:A *144:A 0
5 *151:A *153:A 2.85068e-05
*RES
1 B[0] *153:A 5.35677 
*END

*D_NET *4 0.000651011
*CONN
*P B[1] I
*I *154:A I *D sky130_fd_sc_hd__buf_1
*CAP
1 B[1] 0.000297188
2 *154:A 0.000297188
3 *151:A *154:A 2.96366e-05
4 *152:A *154:A 2.69997e-05
*RES
1 B[1] *154:A 7.8543 
*END

*D_NET *5 0.000577319
*CONN
*P P[0] O
*I *155:X O *D sky130_fd_sc_hd__buf_2
*CAP
1 P[0] 0.00028866
2 *155:X 0.00028866
3 P[0] P[1] 0
*RES
1 *155:X P[0] 5.92503 
*END

*D_NET *6 0.000456287
*CONN
*P P[1] O
*I *156:X O *D sky130_fd_sc_hd__buf_2
*CAP
1 P[1] 0.000222288
2 *156:X 0.000222288
3 P[1] *156:A 1.17114e-05
4 P[0] P[1] 0
*RES
1 *156:X P[1] 4.90503 
*END

*D_NET *7 0.000894056
*CONN
*P P[2] O
*I *157:X O *D sky130_fd_sc_hd__buf_2
*CAP
1 P[2] 0.000447028
2 *157:X 0.000447028
*RES
1 *157:X P[2] 11.55 
*END

*D_NET *8 0.000658473
*CONN
*P P[3] O
*I *158:X O *D sky130_fd_sc_hd__buf_2
*CAP
1 P[3] 0.000313532
2 *158:X 0.000313532
3 *153:A P[3] 3.14094e-05
*RES
1 *158:X P[3] 7.1793 
*END

*D_NET *11 0.00181702
*CONN
*I *142:A I *D sky130_fd_sc_hd__and3_1
*I *139:X O *D sky130_fd_sc_hd__a2bb2o_1
*CAP
1 *142:A 0.000806274
2 *139:X 0.000806274
3 *142:A *142:C 4.18603e-06
4 *142:A *21:73 0.000200288
*RES
1 *139:X *142:A 19.11 
*END

*D_NET *12 0.00137251
*CONN
*I *142:B I *D sky130_fd_sc_hd__and3_1
*I *147:A I *D sky130_fd_sc_hd__and3_1
*I *140:X O *D sky130_fd_sc_hd__or4_1
*CAP
1 *142:B 0
2 *147:A 0.000102655
3 *140:X 0.000548258
4 *12:6 0.000650913
5 *147:A *142:C 7.06865e-05
*RES
1 *140:X *12:6 7.57 
2 *12:6 *147:A 7.49 
3 *12:6 *142:B 1.6 
*END

*D_NET *13 0.00299055
*CONN
*I *149:A1 I *D sky130_fd_sc_hd__a21oi_1
*I *147:B I *D sky130_fd_sc_hd__and3_1
*I *142:C I *D sky130_fd_sc_hd__and3_1
*I *141:X O *D sky130_fd_sc_hd__or4bb_1
*CAP
1 *149:A1 0.000392519
2 *147:B 3.48385e-05
3 *142:C 0.000138897
4 *141:X 0.000106924
5 *13:16 0.000872731
6 *13:12 0.00119844
7 *147:B *147:C 5.36384e-06
8 *13:12 *140:B 4.94474e-05
9 *13:12 *140:C 8.77516e-05
10 *13:16 *147:C 2.87639e-05
11 *142:A *142:C 4.18603e-06
12 *147:A *142:C 7.06865e-05
*RES
1 *141:X *13:12 5.625 
2 *13:12 *13:16 9.695 
3 *13:16 *142:C 7.82 
4 *13:16 *147:B 2.05 
5 *13:12 *149:A1 9.825 
*END

*D_NET *14 0.000396294
*CONN
*I *148:S I *D sky130_fd_sc_hd__mux2_1
*I *143:Y O *D sky130_fd_sc_hd__nand2_1
*CAP
1 *148:S 0.000161356
2 *143:Y 0.000161356
3 *148:S *148:A0 7.35813e-05
4 *148:S *148:A1 0
*RES
1 *143:Y *148:S 9.975 
*END

*D_NET *15 0.0033472
*CONN
*I *146:A_N I *D sky130_fd_sc_hd__and2b_1
*I *149:B1 I *D sky130_fd_sc_hd__a21oi_1
*I *150:B1 I *D sky130_fd_sc_hd__a31o_1
*I *144:X O *D sky130_fd_sc_hd__and4_1
*CAP
1 *146:A_N 0
2 *149:B1 0.000475614
3 *150:B1 0.000106584
4 *144:X 0
5 *15:19 0.00100681
6 *15:4 0.000637785
7 *150:B1 *150:A2 1.26626e-05
8 *150:B1 *22:17 3.00381e-05
9 *150:B1 *23:21 0.000139231
10 *15:19 *146:B 0.000687674
11 *15:19 *22:17 0.000250798
*RES
1 *144:X *15:4 1.6 
2 *15:4 *150:B1 7.94 
3 *15:4 *15:19 11.49 
4 *15:19 *149:B1 12.485 
5 *15:19 *146:A_N 1.6 
*END

*D_NET *16 0.00189451
*CONN
*I *148:A1 I *D sky130_fd_sc_hd__mux2_1
*I *146:B I *D sky130_fd_sc_hd__and2b_1
*I *145:Y O *D sky130_fd_sc_hd__nand2b_1
*CAP
1 *148:A1 0.000114934
2 *146:B 0.000488482
3 *145:Y 0
4 *16:6 0.000603417
5 *146:B *22:58 0
6 *148:A1 *22:58 0
7 *148:S *148:A1 0
8 *15:19 *146:B 0.000687674
*RES
1 *145:Y *16:6 3.6 
2 *16:6 *146:B 12.33 
3 *16:6 *148:A1 5.49 
*END

*D_NET *17 0.000617089
*CONN
*I *147:C I *D sky130_fd_sc_hd__and3_1
*I *146:X O *D sky130_fd_sc_hd__and2b_1
*CAP
1 *147:C 0.000291481
2 *146:X 0.000291481
3 *147:B *147:C 5.36384e-06
4 *13:16 *147:C 2.87639e-05
*RES
1 *146:X *147:C 10.65 
*END

*D_NET *18 0.000153039
*CONN
*I *149:A2 I *D sky130_fd_sc_hd__a21oi_1
*I *148:X O *D sky130_fd_sc_hd__mux2_1
*CAP
1 *149:A2 7.65196e-05
2 *148:X 7.65196e-05
*RES
1 *148:X *149:A2 4.265 
*END

*D_NET *19 0.00127018
*CONN
*I *148:A0 I *D sky130_fd_sc_hd__mux2_1
*I *150:A1 I *D sky130_fd_sc_hd__a31o_1
*I *138:Y O *D sky130_fd_sc_hd__inv_2
*CAP
1 *148:A0 0.000423462
2 *150:A1 0.000125208
3 *138:Y 0
4 *19:4 0.000548671
5 *150:A1 *138:A 5.39673e-05
6 *150:A1 *143:B 4.16353e-05
7 *150:A1 *150:A3 3.64998e-06
8 *150:A1 *158:A 0
9 *148:S *148:A0 7.35813e-05
*RES
1 *138:Y *19:4 1.6 
2 *19:4 *150:A1 3.805 
3 *19:4 *148:A0 11.66 
*END

*D_NET *20 0.0034372
*CONN
*I *144:A I *D sky130_fd_sc_hd__and4_1
*I *141:C_N I *D sky130_fd_sc_hd__or4bb_1
*I *140:A I *D sky130_fd_sc_hd__or4_1
*I *139:B1 I *D sky130_fd_sc_hd__a2bb2o_1
*I *151:X O *D sky130_fd_sc_hd__buf_1
*CAP
1 *144:A 6.36843e-05
2 *141:C_N 0
3 *140:A 0.000158132
4 *139:B1 0
5 *151:X 0.000201104
6 *20:27 0.000397717
7 *20:14 0.000674808
8 *20:8 0.000700012
9 *140:A *140:B 9.36244e-05
10 *140:A *140:C 0.00012411
11 *140:A *140:D 0.000284167
12 *140:A *141:D_N 9.53428e-06
13 *140:A *22:36 2.75229e-05
14 *144:A *21:16 2.46089e-05
15 *144:A *21:25 9.3062e-06
16 *20:14 *21:12 7.35729e-05
17 *20:14 *21:16 0.000158101
18 *20:14 *21:62 0.000211757
19 *20:27 *139:A2_N 3.47837e-05
20 *20:27 *141:A 0
21 *20:27 *21:62 0.000115146
22 *20:27 *21:73 5.30673e-05
23 *20:27 *23:45 2.24423e-05
24 *153:A *144:A 0
*RES
1 *151:X *20:8 5.775 
2 *20:8 *20:14 10.685 
3 *20:14 *139:B1 1.6 
4 *20:14 *20:27 8.155 
5 *20:27 *140:A 6.325 
6 *20:27 *141:C_N 1.6 
7 *20:8 *144:A 4.725 
*END

*D_NET *21 0.00536581
*CONN
*I *140:C I *D sky130_fd_sc_hd__or4_1
*I *141:A I *D sky130_fd_sc_hd__or4bb_1
*I *139:A1_N I *D sky130_fd_sc_hd__a2bb2o_1
*I *150:A2 I *D sky130_fd_sc_hd__a31o_1
*I *145:B I *D sky130_fd_sc_hd__nand2b_1
*I *143:A I *D sky130_fd_sc_hd__nand2_1
*I *144:C I *D sky130_fd_sc_hd__and4_1
*I *152:X O *D sky130_fd_sc_hd__dlymetal6s2s_1
*CAP
1 *140:C 0.000100359
2 *141:A 4.71779e-06
3 *139:A1_N 0
4 *150:A2 4.03535e-05
5 *145:B 7.18947e-05
6 *143:A 9.15261e-06
7 *144:C 0
8 *152:X 0.000288355
9 *21:73 0.000345459
10 *21:62 0.000454773
11 *21:31 0.000411932
12 *21:25 0.000462421
13 *21:16 0.000315321
14 *21:12 0.000726884
15 *140:C *140:B 2.01565e-05
16 *140:C *23:45 0
17 *143:A *138:A 5.53774e-05
18 *143:A *143:B 2.31547e-05
19 *145:B *138:A 3.00399e-05
20 *150:A2 *23:21 2.92496e-05
21 *21:16 *139:B2 0
22 *21:16 *23:10 0.000252282
23 *21:25 *23:10 9.50342e-06
24 *21:25 *23:21 0.000175894
25 *21:31 *138:A 9.27255e-06
26 *21:31 *143:B 0.000412273
27 *21:31 *150:A3 4.66108e-05
28 *21:73 *139:A2_N 0
29 *140:A *140:C 0.00012411
30 *142:A *21:73 0.000200288
31 *144:A *21:16 2.46089e-05
32 *144:A *21:25 9.3062e-06
33 *150:B1 *150:A2 1.26626e-05
34 *13:12 *140:C 8.77516e-05
35 *20:14 *21:12 7.35729e-05
36 *20:14 *21:16 0.000158101
37 *20:14 *21:62 0.000211757
38 *20:27 *141:A 0
39 *20:27 *21:62 0.000115146
40 *20:27 *21:73 5.30673e-05
*RES
1 *152:X *21:12 10.355 
2 *21:12 *21:16 7.715 
3 *21:16 *144:C 3.6 
4 *21:16 *21:25 2.145 
5 *21:25 *21:31 6.86 
6 *21:31 *143:A 2.41 
7 *21:31 *145:B 3.20875 
8 *21:25 *150:A2 4.215 
9 *21:12 *21:62 4.935 
10 *21:62 *139:A1_N 1.6 
11 *21:62 *21:73 6.5375 
12 *21:73 *141:A 3.8325 
13 *21:73 *140:C 5.6775 
*END

*D_NET *22 0.00431252
*CONN
*I *138:A I *D sky130_fd_sc_hd__inv_2
*I *145:A_N I *D sky130_fd_sc_hd__nand2b_1
*I *140:B I *D sky130_fd_sc_hd__or4_1
*I *141:D_N I *D sky130_fd_sc_hd__or4bb_1
*I *139:B2 I *D sky130_fd_sc_hd__a2bb2o_1
*I *144:B I *D sky130_fd_sc_hd__and4_1
*I *153:X O *D sky130_fd_sc_hd__buf_1
*CAP
1 *138:A 0.000191534
2 *145:A_N 0
3 *140:B 0.00015747
4 *141:D_N 1.85694e-05
5 *139:B2 0.000168928
6 *144:B 0
7 *153:X 0.000284091
8 *22:58 0.000380235
9 *22:36 0.000204279
10 *22:21 0.000415938
11 *22:17 0.000712467
12 *22:8 0.000589087
13 *138:A *143:B 0.000151681
14 *139:B2 *139:A2_N 4.61744e-05
15 *139:B2 *140:D 1.83847e-05
16 *139:B2 *141:B 1.91597e-05
17 *139:B2 *23:41 7.10578e-05
18 *139:B2 *23:45 2.84137e-05
19 *140:B *141:B 7.33706e-05
20 *22:21 *23:45 5.23362e-05
21 *22:36 *140:D 2.59835e-05
22 *22:36 *141:B 7.35813e-05
23 *140:A *140:B 9.36244e-05
24 *140:A *141:D_N 9.53428e-06
25 *140:A *22:36 2.75229e-05
26 *140:C *140:B 2.01565e-05
27 *143:A *138:A 5.53774e-05
28 *145:B *138:A 3.00399e-05
29 *146:B *22:58 0
30 *148:A1 *22:58 0
31 *150:A1 *138:A 5.39673e-05
32 *150:B1 *22:17 3.00381e-05
33 *13:12 *140:B 4.94474e-05
34 *15:19 *22:17 0.000250798
35 *21:16 *139:B2 0
36 *21:31 *138:A 9.27255e-06
*RES
1 *153:X *22:8 4.825 
2 *22:8 *144:B 1.6 
3 *22:8 *22:17 7.28 
4 *22:17 *22:21 5.675 
5 *22:21 *139:B2 9.23 
6 *22:21 *22:36 1.14 
7 *22:36 *141:D_N 1.96 
8 *22:36 *140:B 4.84 
9 *22:17 *22:58 4.655 
10 *22:58 *145:A_N 1.6 
11 *22:58 *138:A 5.98 
*END

*D_NET *23 0.00536236
*CONN
*I *141:B I *D sky130_fd_sc_hd__or4bb_1
*I *140:D I *D sky130_fd_sc_hd__or4_1
*I *139:A2_N I *D sky130_fd_sc_hd__a2bb2o_1
*I *143:B I *D sky130_fd_sc_hd__nand2_1
*I *150:A3 I *D sky130_fd_sc_hd__a31o_1
*I *144:D I *D sky130_fd_sc_hd__and4_1
*I *154:X O *D sky130_fd_sc_hd__buf_1
*CAP
1 *141:B 0.000191745
2 *140:D 0.000309526
3 *139:A2_N 5.61844e-05
4 *143:B 9.16628e-05
5 *150:A3 6.89086e-05
6 *144:D 0
7 *154:X 0.000334756
8 *23:45 0.000413484
9 *23:41 0.000608725
10 *23:21 0.000230377
11 *23:10 0.000191197
12 *23:6 0.000825354
13 *150:A3 *158:A 5.4155e-06
14 *138:A *143:B 0.000151681
15 *139:B2 *139:A2_N 4.61744e-05
16 *139:B2 *140:D 1.83847e-05
17 *139:B2 *141:B 1.91597e-05
18 *139:B2 *23:41 7.10578e-05
19 *139:B2 *23:45 2.84137e-05
20 *140:A *140:D 0.000284167
21 *140:B *141:B 7.33706e-05
22 *140:C *23:45 0
23 *143:A *143:B 2.31547e-05
24 *150:A1 *143:B 4.16353e-05
25 *150:A1 *150:A3 3.64998e-06
26 *150:A2 *23:21 2.92496e-05
27 *150:B1 *23:21 0.000139231
28 *20:27 *139:A2_N 3.47837e-05
29 *20:27 *23:45 2.24423e-05
30 *21:16 *23:10 0.000252282
31 *21:25 *23:10 9.50342e-06
32 *21:25 *23:21 0.000175894
33 *21:31 *143:B 0.000412273
34 *21:31 *150:A3 4.66108e-05
35 *21:73 *139:A2_N 0
36 *22:21 *23:45 5.23362e-05
37 *22:36 *140:D 2.59835e-05
38 *22:36 *141:B 7.35813e-05
*RES
1 *154:X *23:6 5.155 
2 *23:6 *23:10 4.91 
3 *23:10 *144:D 3.6 
4 *23:10 *23:21 4.4 
5 *23:21 *150:A3 2.755 
6 *23:21 *143:B 5.77 
7 *23:6 *23:41 4.245 
8 *23:41 *23:45 3.38 
9 *23:45 *139:A2_N 4.98 
10 *23:45 *140:D 7.86 
11 *23:41 *141:B 4.12 
*END

*D_NET *24 0.000771652
*CONN
*I *155:A I *D sky130_fd_sc_hd__buf_2
*I *142:X O *D sky130_fd_sc_hd__and3_1
*CAP
1 *155:A 0.000385826
2 *142:X 0.000385826
*RES
1 *142:X *155:A 9.095 
*END

*D_NET *25 0.00101657
*CONN
*I *156:A I *D sky130_fd_sc_hd__buf_2
*I *147:X O *D sky130_fd_sc_hd__and3_1
*CAP
1 *156:A 0.000502427
2 *147:X 0.000502427
3 P[1] *156:A 1.17114e-05
*RES
1 *147:X *156:A 13.17 
*END

*D_NET *26 0.000418292
*CONN
*I *157:A I *D sky130_fd_sc_hd__buf_2
*I *149:Y O *D sky130_fd_sc_hd__a21oi_1
*CAP
1 *157:A 0.000209146
2 *149:Y 0.000209146
*RES
1 *149:Y *157:A 10.32 
*END

*D_NET *27 0.000285982
*CONN
*I *158:A I *D sky130_fd_sc_hd__buf_2
*I *150:X O *D sky130_fd_sc_hd__a31o_1
*CAP
1 *158:A 0.000140283
2 *150:X 0.000140283
3 *150:A1 *158:A 0
4 *150:A3 *158:A 5.4155e-06
*RES
1 *150:X *158:A 5.39 
*END
