*SPEF "ieee 1481-1999"
*DESIGN "mult4_SarsaNada_e6_SarsaNStepsRuido_e9_SarsaNStepsRuido_e9_SARSA_RUIDO_e9"
*DATE "12:07:05 Wednesday September 17, 2025"
*VENDOR "The OpenROAD Project"
*PROGRAM "OpenROAD"
*VERSION "edf00dff99f6c40d67a30c0e22a8191c5d2ed9d6"
*DESIGN_FLOW "NAME_SCOPE LOCAL" "PIN_CAP NONE"
*DIVIDER /
*DELIMITER :
*BUS_DELIMITER []
*T_UNIT 1 NS
*C_UNIT 1 PF
*R_UNIT 1 OHM
*L_UNIT 1 HENRY

*NAME_MAP
*1 A[0]
*2 A[1]
*3 A[2]
*4 A[3]
*5 B[0]
*6 B[1]
*7 B[2]
*8 B[3]
*9 P[0]
*10 P[1]
*11 P[2]
*12 P[3]
*13 P[4]
*14 P[5]
*15 P[6]
*16 P[7]
*19 _000_
*20 _001_
*21 _002_
*22 _003_
*23 _004_
*24 _005_
*25 _006_
*26 _007_
*27 _008_
*28 _009_
*29 _010_
*30 _011_
*31 _012_
*32 _013_
*33 _014_
*34 _015_
*35 _016_
*36 _017_
*37 _018_
*38 _019_
*39 _020_
*40 _021_
*41 _022_
*42 _023_
*43 _024_
*44 _025_
*45 _026_
*46 _027_
*47 _028_
*48 _029_
*49 _030_
*50 _031_
*51 _032_
*52 _033_
*53 _034_
*54 _035_
*55 _036_
*56 _037_
*57 _038_
*58 _039_
*59 _040_
*60 _041_
*61 _042_
*62 _043_
*63 _044_
*64 _045_
*65 _046_
*66 net1
*67 net10
*68 net11
*69 net12
*70 net13
*71 net14
*72 net15
*73 net16
*74 net2
*75 net3
*76 net4
*77 net5
*78 net6
*79 net7
*80 net8
*81 net9
*82 FILLER_0_15
*83 FILLER_0_27
*84 FILLER_0_3
*85 FILLER_0_33
*86 FILLER_0_55
*87 FILLER_0_76
*88 FILLER_0_80
*89 FILLER_1_11
*90 FILLER_1_22
*91 FILLER_1_29
*92 FILLER_1_3
*93 FILLER_1_34
*94 FILLER_1_42
*95 FILLER_1_51
*96 FILLER_1_55
*97 FILLER_1_57
*98 FILLER_1_61
*99 FILLER_1_75
*100 FILLER_2_11
*101 FILLER_2_23
*102 FILLER_2_3
*103 FILLER_2_38
*104 FILLER_2_49
*105 FILLER_2_61
*106 FILLER_2_7
*107 FILLER_2_79
*108 FILLER_3_28
*109 FILLER_3_3
*110 FILLER_3_36
*111 FILLER_3_79
*112 FILLER_4_19
*113 FILLER_4_27
*114 FILLER_4_29
*115 FILLER_4_41
*116 FILLER_4_53
*117 FILLER_4_65
*118 FILLER_4_7
*119 FILLER_5_19
*120 FILLER_5_34
*121 FILLER_5_40
*122 FILLER_5_51
*123 FILLER_5_55
*124 FILLER_5_57
*125 FILLER_5_69
*126 FILLER_5_7
*127 FILLER_5_79
*128 FILLER_6_18
*129 FILLER_6_34
*130 FILLER_6_40
*131 FILLER_6_48
*132 FILLER_6_52
*133 FILLER_6_60
*134 FILLER_6_68
*135 FILLER_6_79
*136 FILLER_7_15
*137 FILLER_7_19
*138 FILLER_7_31
*139 FILLER_7_55
*140 FILLER_7_57
*141 FILLER_7_7
*142 FILLER_7_74
*143 FILLER_7_80
*144 FILLER_8_16
*145 FILLER_8_29
*146 FILLER_8_3
*147 FILLER_8_41
*148 FILLER_8_53
*149 FILLER_8_65
*150 FILLER_8_77
*151 FILLER_9_19
*152 FILLER_9_27
*153 FILLER_9_36
*154 FILLER_9_42
*155 FILLER_9_54
*156 FILLER_9_57
*157 FILLER_9_69
*158 FILLER_9_7
*159 PHY_EDGE_ROW_0_Left_10
*160 PHY_EDGE_ROW_0_Right_0
*161 PHY_EDGE_ROW_1_Left_11
*162 PHY_EDGE_ROW_1_Right_1
*163 PHY_EDGE_ROW_2_Left_12
*164 PHY_EDGE_ROW_2_Right_2
*165 PHY_EDGE_ROW_3_Left_13
*166 PHY_EDGE_ROW_3_Right_3
*167 PHY_EDGE_ROW_4_Left_14
*168 PHY_EDGE_ROW_4_Right_4
*169 PHY_EDGE_ROW_5_Left_15
*170 PHY_EDGE_ROW_5_Right_5
*171 PHY_EDGE_ROW_6_Left_16
*172 PHY_EDGE_ROW_6_Right_6
*173 PHY_EDGE_ROW_7_Left_17
*174 PHY_EDGE_ROW_7_Right_7
*175 PHY_EDGE_ROW_8_Left_18
*176 PHY_EDGE_ROW_8_Right_8
*177 PHY_EDGE_ROW_9_Left_19
*178 PHY_EDGE_ROW_9_Right_9
*179 TAP_TAPCELL_ROW_0_20
*180 TAP_TAPCELL_ROW_0_21
*181 TAP_TAPCELL_ROW_1_22
*182 TAP_TAPCELL_ROW_2_23
*183 TAP_TAPCELL_ROW_3_24
*184 TAP_TAPCELL_ROW_4_25
*185 TAP_TAPCELL_ROW_5_26
*186 TAP_TAPCELL_ROW_6_27
*187 TAP_TAPCELL_ROW_7_28
*188 TAP_TAPCELL_ROW_8_29
*189 TAP_TAPCELL_ROW_9_30
*190 TAP_TAPCELL_ROW_9_31
*191 _047_
*192 _048_
*193 _049_
*194 _050_
*195 _051_
*196 _052_
*197 _053_
*198 _054_
*199 _055_
*200 _056_
*201 _057_
*202 _058_
*203 _059_
*204 _060_
*205 _061_
*206 _062_
*207 _063_
*208 _064_
*209 _065_
*210 _066_
*211 _067_
*212 _068_
*213 _069_
*214 _070_
*215 _071_
*216 _072_
*217 _073_
*218 _074_
*219 _075_
*220 _076_
*221 _077_
*222 _078_
*223 _079_
*224 _080_
*225 _081_
*226 _082_
*227 _083_
*228 _084_
*229 _085_
*230 _086_
*231 _087_
*232 _088_
*233 _089_
*234 _090_
*235 _091_
*236 _092_
*237 _093_
*238 _094_
*239 _095_
*240 _096_
*241 _097_
*242 _098_
*243 _099_
*244 _100_
*245 _101_
*246 input1
*247 input2
*248 input3
*249 input4
*250 input5
*251 input6
*252 input7
*253 input8
*254 output10
*255 output11
*256 output12
*257 output13
*258 output14
*259 output15
*260 output16
*261 output9

*PORTS
A[0] I
A[1] I
A[2] I
A[3] I
B[0] I
B[1] I
B[2] I
B[3] I
P[0] O
P[1] O
P[2] O
P[3] O
P[4] O
P[5] O
P[6] O
P[7] O

*D_NET *1 0.00151439
*CONN
*P A[0] I
*I *246:A I *D sky130_fd_sc_hd__buf_1
*CAP
1 A[0] 0.000638659
2 *246:A 0
3 *1:9 0.000638659
4 *1:9 P[2] 0
5 *1:9 *252:A 0
6 *1:9 *32:10 5.3304e-05
7 *1:9 *66:14 8.72173e-05
8 *1:9 *78:35 5.3304e-05
9 *1:9 *79:14 4.32448e-05
*RES
1 A[0] *1:9 27.4907 
2 *1:9 *246:A 23 
*END

*D_NET *2 0.000820332
*CONN
*P A[1] I
*I *247:A I *D sky130_fd_sc_hd__buf_1
*CAP
1 A[1] 0.000410166
2 *247:A 0.000410166
3 *247:A P[2] 0
4 *247:A *192:B 0
*RES
1 A[1] *247:A 46.7 
*END

*D_NET *3 0.000751482
*CONN
*P A[2] I
*I *248:A I *D sky130_fd_sc_hd__clkbuf_2
*CAP
1 A[2] 0.000349495
2 *248:A 0
3 *3:17 0.000349495
4 *3:17 *4:11 3.12475e-05
5 *3:17 *8:17 2.12457e-05
*RES
1 A[2] *3:17 27.6348 
2 *3:17 *248:A 23 
*END

*D_NET *4 0.00100095
*CONN
*P A[3] I
*I *249:A I *D sky130_fd_sc_hd__buf_1
*CAP
1 A[3] 0.000469225
2 *249:A 0
3 *4:11 0.000469225
4 *4:11 *6:17 3.12475e-05
5 *4:11 *19:10 0
6 *4:11 *48:10 0
7 *4:11 *80:20 0
8 *3:17 *4:11 3.12475e-05
*RES
1 A[3] *4:11 28.3047 
2 *4:11 *249:A 23 
*END

*D_NET *5 0.00145154
*CONN
*P B[0] I
*I *250:A I *D sky130_fd_sc_hd__dlymetal6s2s_1
*CAP
1 B[0] 0.000540781
2 *250:A 0
3 *5:9 0.000540781
4 *5:9 P[0] 0
5 *5:9 *197:A2 3.70094e-05
6 *5:9 *23:8 1.01436e-05
7 *5:9 *24:8 0.000143655
8 *5:9 *77:8 0.000153155
9 *5:9 *78:103 2.60152e-05
*RES
1 B[0] *5:9 27.0557 
2 *5:9 *250:A 23 
*END

*D_NET *6 0.000773667
*CONN
*P B[1] I
*I *251:A I *D sky130_fd_sc_hd__clkbuf_2
*CAP
1 B[1] 0.00037121
2 *251:A 0
3 *6:17 0.00037121
4 *4:11 *6:17 3.12475e-05
*RES
1 B[1] *6:17 28.3391 
2 *6:17 *251:A 23 
*END

*D_NET *7 0.000879021
*CONN
*P B[2] I
*I *252:A I *D sky130_fd_sc_hd__clkbuf_2
*CAP
1 B[2] 0.000433346
2 *252:A 0.000433346
3 *252:A P[0] 0
4 *252:A *192:A 1.23293e-05
5 *1:9 *252:A 0
*RES
1 B[2] *252:A 46.9693 
*END

*D_NET *8 0.000677287
*CONN
*P B[3] I
*I *253:A I *D sky130_fd_sc_hd__clkbuf_2
*CAP
1 B[3] 0.000314064
2 *253:A 0
3 *8:17 0.000314064
4 *8:17 P[7] 2.79122e-05
5 *3:17 *8:17 2.12457e-05
*RES
1 B[3] *8:17 27.2827 
2 *8:17 *253:A 23 
*END

*D_NET *9 0.00134533
*CONN
*P P[0] O
*I *261:X O *D sky130_fd_sc_hd__buf_2
*CAP
1 P[0] 0.000641953
2 *261:X 0.000641953
3 P[0] *192:A 5.9115e-06
4 P[0] *196:B1 1.19371e-05
5 P[0] *261:A 3.07986e-05
6 P[0] *77:27 1.27754e-05
7 *252:A P[0] 0
8 *5:9 P[0] 0
*RES
1 *261:X P[0] 49.7657 
*END

*D_NET *10 0.00145323
*CONN
*P P[1] O
*I *254:X O *D sky130_fd_sc_hd__buf_2
*CAP
1 P[1] 0.000377599
2 *254:X 0.000305958
3 *10:8 0.000683557
4 *10:8 *254:A 3.22879e-05
5 *10:8 *24:8 5.38249e-05
*RES
1 *254:X *10:8 42.4329 
2 *10:8 P[1] 7.99571 
*END

*D_NET *11 0.00149579
*CONN
*P P[2] O
*I *255:X O *D sky130_fd_sc_hd__buf_2
*CAP
1 P[2] 0.000394496
2 *255:X 0.000190846
3 *11:10 0.000585342
4 *11:10 *192:A 9.24795e-06
5 *11:10 *199:C 6.25714e-05
6 *11:10 *255:A 0.000143655
7 *11:10 *66:28 2.4754e-05
8 *11:10 *74:21 5.50106e-05
9 *11:10 *79:14 2.98648e-05
10 *247:A P[2] 0
11 *1:9 P[2] 0
*RES
1 *255:X *11:10 42.4536 
2 *11:10 P[2] 8.34786 
*END

*D_NET *12 0.000735815
*CONN
*P P[3] O
*I *256:X O *D sky130_fd_sc_hd__buf_2
*CAP
1 P[3] 0.000303122
2 *256:X 0.000303122
3 P[3] P[4] 0
4 P[3] *69:8 0.000129571
*RES
1 *256:X P[3] 48.5734 
*END

*D_NET *13 0.00118815
*CONN
*P P[4] O
*I *257:X O *D sky130_fd_sc_hd__buf_2
*CAP
1 P[4] 0.000266497
2 *257:X 0.000300205
3 *13:12 0.000566701
4 P[4] P[5] 0
5 *13:12 *257:A 3.22879e-05
6 *13:12 *47:10 2.24608e-05
7 P[3] P[4] 0
*RES
1 *257:X *13:12 49.8011 
2 *13:12 P[4] 0.9296 
*END

*D_NET *14 0.000693257
*CONN
*P P[5] O
*I *258:X O *D sky130_fd_sc_hd__buf_2
*CAP
1 P[5] 0.000313891
2 *258:X 0.000313891
3 P[5] *71:10 6.54744e-05
4 P[4] P[5] 0
*RES
1 *258:X P[5] 48.5734 
*END

*D_NET *15 0.00100375
*CONN
*P P[6] O
*I *259:X O *D sky130_fd_sc_hd__buf_2
*CAP
1 P[6] 0.000501876
2 *259:X 0.000501876
*RES
1 *259:X P[6] 48.9786 
*END

*D_NET *16 0.000683751
*CONN
*P P[7] O
*I *260:X O *D sky130_fd_sc_hd__buf_2
*CAP
1 P[7] 0.00032792
2 *260:X 0.00032792
3 P[7] *73:8 0
4 *8:17 P[7] 2.79122e-05
*RES
1 *260:X P[7] 48.5734 
*END

*D_NET *19 0.000959787
*CONN
*I *226:A2 I *D sky130_fd_sc_hd__a211o_1
*I *191:Y O *D sky130_fd_sc_hd__inv_2
*CAP
1 *226:A2 0
2 *191:Y 0.000244575
3 *19:10 0.000244575
4 *19:10 *48:10 8.72375e-05
5 *19:10 *75:6 4.79641e-05
6 *19:10 *76:12 7.03663e-05
7 *19:10 *80:14 2.68751e-05
8 *19:10 *80:16 0.000151907
9 *19:10 *80:20 8.62876e-05
10 *4:11 *19:10 0
*RES
1 *191:Y *19:10 43.2407 
2 *19:10 *226:A2 38 
*END

*D_NET *20 0.000348062
*CONN
*I *199:C I *D sky130_fd_sc_hd__and3_1
*I *192:Y O *D sky130_fd_sc_hd__nand2_1
*CAP
1 *199:C 0.000106559
2 *192:Y 0.000106559
3 *199:C *74:8 5.67058e-05
4 *199:C *74:21 1.56665e-05
5 *11:10 *199:C 6.25714e-05
*RES
1 *192:Y *199:C 47.6571 
*END

*D_NET *21 0.0033412
*CONN
*I *194:A I *D sky130_fd_sc_hd__inv_2
*I *209:A I *D sky130_fd_sc_hd__xnor2_1
*I *196:B1 I *D sky130_fd_sc_hd__a21o_1
*I *193:X O *D sky130_fd_sc_hd__and4_1
*CAP
1 *194:A 0.000153945
2 *209:A 0
3 *196:B1 0.000210673
4 *193:X 5.87629e-05
5 *21:29 0.000433425
6 *21:8 0.000548916
7 *194:A *208:A 1.14154e-05
8 *194:A *208:B 0.000198545
9 *194:A *22:6 3.22879e-05
10 *194:A *22:14 4.95081e-05
11 *194:A *32:10 1.72202e-05
12 *194:A *33:10 5.67058e-05
13 *194:A *34:10 0.00010018
14 *196:B1 *193:D 1.09886e-05
15 *196:B1 *196:A2 6.28757e-05
16 *196:B1 *197:B2 9.57544e-05
17 *196:B1 *77:27 0.000175705
18 *196:B1 *78:103 0.000168418
19 *21:8 *193:D 5.93983e-05
20 *21:8 *78:103 5.66232e-05
21 *21:29 *195:B1_N 0.000137651
22 *21:29 *32:10 0.000660144
23 *21:29 *78:103 3.01195e-05
24 P[0] *196:B1 1.19371e-05
*RES
1 *193:X *21:8 39.7296 
2 *21:8 *196:B1 43.6861 
3 *21:8 *21:29 23.2339 
4 *21:29 *209:A 23 
5 *21:29 *194:A 27.9507 
*END

*D_NET *22 0.000802864
*CONN
*I *208:A I *D sky130_fd_sc_hd__nor2_1
*I *198:A I *D sky130_fd_sc_hd__and2_1
*I *194:Y O *D sky130_fd_sc_hd__inv_2
*CAP
1 *208:A 2.0995e-05
2 *198:A 0
3 *194:Y 4.42028e-05
4 *22:14 0.000262123
5 *22:6 0.000327321
6 *208:A *208:B 0
7 *22:14 *208:B 5.50106e-05
8 *194:A *208:A 1.14154e-05
9 *194:A *22:6 3.22879e-05
10 *194:A *22:14 4.95081e-05
*RES
1 *194:Y *22:6 24.0979 
2 *22:6 *22:14 34.5364 
3 *22:14 *198:A 23 
4 *22:6 *208:A 23.4971 
*END

*D_NET *23 0.000651263
*CONN
*I *196:A2 I *D sky130_fd_sc_hd__a21o_1
*I *195:X O *D sky130_fd_sc_hd__o21ba_1
*CAP
1 *196:A2 8.49958e-05
2 *195:X 5.33634e-05
3 *23:8 0.000138359
4 *196:A2 *197:B2 5.22153e-05
5 *196:A2 *77:12 1.22822e-05
6 *196:A2 *78:103 2.93845e-05
7 *23:8 *197:A2 6.57551e-05
8 *23:8 *78:103 0.000141888
9 *196:B1 *196:A2 6.28757e-05
10 *5:9 *23:8 1.01436e-05
*RES
1 *195:X *23:8 39.9057 
2 *23:8 *196:A2 40.0714 
*END

*D_NET *24 0.00105738
*CONN
*I *198:B I *D sky130_fd_sc_hd__and2_1
*I *197:X O *D sky130_fd_sc_hd__a22o_1
*CAP
1 *198:B 0
2 *197:X 0.000403465
3 *24:8 0.000403465
4 *24:8 *77:8 5.29672e-05
5 *5:9 *24:8 0.000143655
6 *10:8 *24:8 5.38249e-05
*RES
1 *197:X *24:8 31.1407 
2 *24:8 *198:B 23 
*END

*D_NET *25 0.00355133
*CONN
*I *201:A I *D sky130_fd_sc_hd__inv_2
*I *219:S I *D sky130_fd_sc_hd__mux2_1
*I *227:B I *D sky130_fd_sc_hd__nand3_1
*I *217:B I *D sky130_fd_sc_hd__nand2_1
*I *200:X O *D sky130_fd_sc_hd__and3_1
*CAP
1 *201:A 0.000109203
2 *219:S 0
3 *227:B 0.000127711
4 *217:B 0
5 *200:X 0
6 *25:40 0.000823217
7 *25:8 0.000267776
8 *25:4 0.00085408
9 *201:A *202:A 0.000131304
10 *201:A *211:A2 0
11 *201:A *27:6 5.67058e-05
12 *201:A *28:10 0.000165744
13 *227:B *200:C 0
14 *227:B *217:A 5.50106e-05
15 *227:B *41:8 3.34129e-05
16 *25:8 *218:B 0
17 *25:40 *200:A 4.64347e-05
18 *25:40 *200:B 0.000231381
19 *25:40 *200:C 1.24163e-05
20 *25:40 *202:A 2.93845e-05
21 *25:40 *218:B 0.000138627
22 *25:40 *28:10 0.000440724
23 *25:40 *75:44 7.95355e-06
24 *25:40 *75:63 2.0245e-05
*RES
1 *200:X *25:4 23 
2 *25:4 *25:8 2.9 
3 *25:8 *217:B 23 
4 *25:8 *227:B 25.5479 
5 *25:4 *25:40 43.0293 
6 *25:40 *219:S 23 
7 *25:40 *201:A 27.4536 
*END

*D_NET *26 0.000719525
*CONN
*I *210:A I *D sky130_fd_sc_hd__and4_1
*I *211:A1 I *D sky130_fd_sc_hd__a31o_1
*I *201:Y O *D sky130_fd_sc_hd__inv_2
*CAP
1 *210:A 5.84488e-05
2 *211:A1 0
3 *201:Y 7.84958e-05
4 *26:6 0.000136945
5 *210:A *210:B 2.32004e-05
6 *210:A *210:C 0.000139357
7 *210:A *210:D 0.000126847
8 *210:A *27:6 2.4754e-05
9 *26:6 *210:D 2.93845e-05
10 *26:6 *27:6 0.000102093
*RES
1 *201:Y *26:6 25.0507 
2 *26:6 *211:A1 23 
3 *26:6 *210:A 25.5271 
*END

*D_NET *27 0.00133364
*CONN
*I *210:B I *D sky130_fd_sc_hd__and4_1
*I *211:A2 I *D sky130_fd_sc_hd__a31o_1
*I *202:X O *D sky130_fd_sc_hd__or2_1
*CAP
1 *210:B 0.000105407
2 *211:A2 2.34823e-05
3 *202:X 6.53979e-05
4 *27:6 0.000194287
5 *210:B *210:C 0.000239626
6 *210:B *28:10 4.17736e-05
7 *210:B *36:10 0.00014196
8 *211:A2 *210:C 0
9 *27:6 *28:10 0.00031495
10 *201:A *211:A2 0
11 *201:A *27:6 5.67058e-05
12 *210:A *210:B 2.32004e-05
13 *210:A *27:6 2.4754e-05
14 *26:6 *27:6 0.000102093
*RES
1 *202:X *27:6 26.48 
2 *27:6 *211:A2 23.4971 
3 *27:6 *210:B 26.8529 
*END

*D_NET *28 0.00333645
*CONN
*I *210:C I *D sky130_fd_sc_hd__and4_1
*I *211:A3 I *D sky130_fd_sc_hd__a31o_1
*I *203:X O *D sky130_fd_sc_hd__a21o_1
*CAP
1 *210:C 9.27224e-05
2 *211:A3 0
3 *203:X 0.000585913
4 *28:16 0.00014052
5 *28:10 0.000633711
6 *210:C *210:D 0.000112463
7 *210:C *36:10 1.32939e-05
8 *28:10 *202:A 3.55572e-05
9 *28:10 *218:B 5.79559e-05
10 *28:10 *219:A0 0.000272099
11 *28:16 *210:D 4.21594e-06
12 *28:16 *33:10 2.71291e-05
13 *28:16 *34:10 1.86973e-05
14 *201:A *28:10 0.000165744
15 *210:A *210:C 0.000139357
16 *210:B *210:C 0.000239626
17 *210:B *28:10 4.17736e-05
18 *211:A2 *210:C 0
19 *25:40 *28:10 0.000440724
20 *27:6 *28:10 0.00031495
*RES
1 *203:X *28:10 36.1743 
2 *28:10 *28:16 30.8493 
3 *28:16 *211:A3 23 
4 *28:16 *210:C 26.9979 
*END

*D_NET *29 0.00269531
*CONN
*I *216:S I *D sky130_fd_sc_hd__mux2_1
*I *214:B I *D sky130_fd_sc_hd__and2_1
*I *207:A I *D sky130_fd_sc_hd__or3_1
*I *204:X O *D sky130_fd_sc_hd__and3_1
*CAP
1 *216:S 0
2 *214:B 0
3 *207:A 0.00011774
4 *204:X 0
5 *29:38 0.000217949
6 *29:25 0.000199307
7 *29:6 0.000650424
8 *29:4 0.000551326
9 *207:A *206:B1 9.37607e-06
10 *207:A *207:C 5.80206e-05
11 *29:6 *204:C 1.95448e-05
12 *29:6 *206:A1 0.00018282
13 *29:6 *206:B1 1.22822e-05
14 *29:6 *78:35 8.33125e-05
15 *29:6 *79:102 2.18506e-05
16 *29:25 *30:10 0
17 *29:25 *78:16 0
18 *29:25 *79:44 0.000246757
19 *29:25 *79:102 0.000136486
20 *29:25 *80:39 0.00010404
21 *29:38 *66:14 1.01436e-05
22 *29:38 *77:61 0
23 *29:38 *78:35 7.39261e-05
24 *29:38 *79:31 0
*RES
1 *204:X *29:4 23 
2 *29:4 *29:6 4.90929 
3 *29:6 *207:A 25.7136 
4 *29:6 *29:25 35.075 
5 *29:25 *214:B 23 
6 *29:4 *29:38 33.3557 
7 *29:38 *216:S 23 
*END

*D_NET *30 0.000886575
*CONN
*I *207:B I *D sky130_fd_sc_hd__or3_1
*I *205:Y O *D sky130_fd_sc_hd__nor2_1
*CAP
1 *207:B 0
2 *205:Y 0.000350574
3 *30:10 0.000350574
4 *30:10 *199:B 0
5 *30:10 *205:B 0.00010018
6 *30:10 *206:B1 0
7 *30:10 *79:102 0
8 *30:10 *80:33 8.52481e-05
9 *29:25 *30:10 0
*RES
1 *205:Y *30:10 43.0129 
2 *30:10 *207:B 38 
*END

*D_NET *31 0.000426212
*CONN
*I *207:C I *D sky130_fd_sc_hd__or3_1
*I *206:Y O *D sky130_fd_sc_hd__a21oi_1
*CAP
1 *207:C 0.000149127
2 *206:Y 0.000149127
3 *207:C *206:B1 1.32314e-05
4 *207:C *32:10 5.67058e-05
5 *207:A *207:C 5.80206e-05
*RES
1 *206:Y *207:C 49.3764 
*END

*D_NET *32 0.00427231
*CONN
*I *208:B I *D sky130_fd_sc_hd__nor2_1
*I *209:B I *D sky130_fd_sc_hd__xnor2_1
*I *207:X O *D sky130_fd_sc_hd__or3_1
*CAP
1 *208:B 7.4703e-05
2 *209:B 0
3 *207:X 0.00108612
4 *32:10 0.00116083
5 *32:10 *195:A1 9.43908e-05
6 *32:10 *195:B1_N 2.18506e-05
7 *32:10 *206:A1 2.07242e-05
8 *32:10 *206:B1 4.6595e-05
9 *32:10 *66:14 0.000119467
10 *32:10 *66:28 2.93845e-05
11 *32:10 *66:63 2.69729e-05
12 *32:10 *66:72 5.56279e-05
13 *32:10 *78:35 0.000478947
14 *32:10 *79:102 1.5769e-05
15 *194:A *208:B 0.000198545
16 *194:A *32:10 1.72202e-05
17 *207:C *32:10 5.67058e-05
18 *208:A *208:B 0
19 *1:9 *32:10 5.3304e-05
20 *21:29 *32:10 0.000660144
21 *22:14 *208:B 5.50106e-05
*RES
1 *207:X *32:10 47.0079 
2 *32:10 *209:B 23 
3 *32:10 *208:B 25.5479 
*END

*D_NET *33 0.00223479
*CONN
*I *223:A1 I *D sky130_fd_sc_hd__o21ai_1
*I *244:A I *D sky130_fd_sc_hd__or3_1
*I *208:Y O *D sky130_fd_sc_hd__nor2_1
*CAP
1 *223:A1 0.000333307
2 *244:A 5.44302e-05
3 *208:Y 0.000591873
4 *33:10 0.00097961
5 *223:A1 *223:B1 8.00517e-06
6 *223:A1 *244:B 0.000183733
7 *244:A *35:23 0
8 *33:10 *210:D 0
9 *33:10 *212:A_N 0
10 *33:10 *34:10 0
11 *33:10 *35:23 0
12 *33:10 *36:10 0
13 *194:A *33:10 5.67058e-05
14 *28:16 *33:10 2.71291e-05
*RES
1 *208:Y *33:10 48.0982 
2 *33:10 *244:A 39.0254 
3 *33:10 *223:A1 43.1475 
*END

*D_NET *34 0.00184184
*CONN
*I *210:D I *D sky130_fd_sc_hd__and4_1
*I *211:B1 I *D sky130_fd_sc_hd__a31o_1
*I *209:Y O *D sky130_fd_sc_hd__xnor2_1
*CAP
1 *210:D 0.000391489
2 *211:B1 0
3 *209:Y 0.000331686
4 *34:10 0.000723175
5 *210:D *36:10 3.70071e-06
6 *210:D *78:84 0
7 *194:A *34:10 0.00010018
8 *210:A *210:D 0.000126847
9 *210:C *210:D 0.000112463
10 *26:6 *210:D 2.93845e-05
11 *28:16 *210:D 4.21594e-06
12 *28:16 *34:10 1.86973e-05
13 *33:10 *210:D 0
14 *33:10 *34:10 0
*RES
1 *209:Y *34:10 43.8207 
2 *34:10 *211:B1 38 
3 *34:10 *210:D 44.1107 
*END

*D_NET *35 0.00202468
*CONN
*I *223:A2 I *D sky130_fd_sc_hd__o21ai_1
*I *244:B I *D sky130_fd_sc_hd__or3_1
*I *212:A_N I *D sky130_fd_sc_hd__and2b_1
*I *210:X O *D sky130_fd_sc_hd__and4_1
*CAP
1 *223:A2 0
2 *244:B 8.71053e-05
3 *212:A_N 0.00023188
4 *210:X 5.145e-05
5 *35:23 0.000339048
6 *35:8 0.000535272
7 *212:A_N *36:10 0.000114074
8 *212:A_N *69:8 0.000169674
9 *244:B *223:B1 8.54477e-05
10 *244:B *47:10 3.17516e-05
11 *35:23 *69:8 0.000195248
12 *223:A1 *244:B 0.000183733
13 *244:A *35:23 0
14 *33:10 *212:A_N 0
15 *33:10 *35:23 0
*RES
1 *210:X *35:8 38.6214 
2 *35:8 *212:A_N 43.0129 
3 *35:8 *35:23 20.075 
4 *35:23 *244:B 26.0243 
5 *35:23 *223:A2 23 
*END

*D_NET *36 0.00074749
*CONN
*I *212:B I *D sky130_fd_sc_hd__and2b_1
*I *211:X O *D sky130_fd_sc_hd__a31o_1
*CAP
1 *212:B 0
2 *211:X 0.000237231
3 *36:10 0.000237231
4 *210:B *36:10 0.00014196
5 *210:C *36:10 1.32939e-05
6 *210:D *36:10 3.70071e-06
7 *212:A_N *36:10 0.000114074
8 *33:10 *36:10 0
*RES
1 *211:X *36:10 42.0807 
2 *36:10 *212:B 38 
*END

*D_NET *37 0.00258259
*CONN
*I *222:A I *D sky130_fd_sc_hd__xnor2_1
*I *236:C I *D sky130_fd_sc_hd__and3_1
*I *213:Y O *D sky130_fd_sc_hd__nand2_1
*CAP
1 *222:A 0.000801965
2 *236:C 4.71902e-05
3 *213:Y 6.85998e-05
4 *37:10 0.000849155
5 *37:8 6.85998e-05
6 *222:A *222:B 0.000116257
7 *222:A *230:A3 3.59884e-05
8 *222:A *230:B1 7.45176e-06
9 *222:A *75:87 0.000404644
10 *222:A *76:49 6.57815e-06
11 *222:A *79:60 2.02872e-05
12 *222:A *80:101 5.56356e-05
13 *236:C *80:101 6.25657e-05
14 *37:8 *79:60 3.76761e-05
*RES
1 *213:Y *37:8 39.2014 
2 *37:8 *37:10 15 
3 *37:10 *236:C 23.7043 
4 *37:10 *222:A 34.9521 
*END

*D_NET *38 0.000819411
*CONN
*I *227:C I *D sky130_fd_sc_hd__nand3_1
*I *228:A I *D sky130_fd_sc_hd__xor2_1
*I *214:X O *D sky130_fd_sc_hd__and2_1
*CAP
1 *227:C 0.000117925
2 *228:A 0.00011495
3 *214:X 0
4 *38:4 0.000232875
5 *227:C *41:8 0.000183495
6 *227:C *51:10 7.11496e-05
7 *228:A *41:8 9.90162e-05
*RES
1 *214:X *38:4 23 
2 *38:4 *228:A 25.5271 
3 *38:4 *227:C 26.6664 
*END

*D_NET *39 0.000718606
*CONN
*I *216:A0 I *D sky130_fd_sc_hd__mux2_1
*I *215:Y O *D sky130_fd_sc_hd__nand2_1
*CAP
1 *216:A0 7.66451e-05
2 *215:Y 7.66451e-05
3 *216:A0 *216:A1 0.000270406
4 *216:A0 *74:43 2.18506e-05
5 *216:A0 *74:50 0.000273059
*RES
1 *215:Y *216:A0 49.48 
*END

*D_NET *40 0.00224566
*CONN
*I *220:A I *D sky130_fd_sc_hd__nor2_1
*I *221:A I *D sky130_fd_sc_hd__xor2_1
*I *216:X O *D sky130_fd_sc_hd__mux2_1
*CAP
1 *220:A 0.000220794
2 *221:A 0
3 *216:X 0.000466677
4 *40:14 0.000310474
5 *40:10 0.000556357
6 *220:A *220:B 9.5877e-05
7 *220:A *221:B 0.000111296
8 *40:10 *74:50 4.81857e-05
9 *40:10 *75:63 6.07306e-05
10 *40:10 *76:49 0.000215075
11 *40:10 *77:61 0.000160191
*RES
1 *216:X *40:10 47.4664 
2 *40:10 *40:14 16.5743 
3 *40:14 *221:A 23 
4 *40:14 *220:A 27.4743 
*END

*D_NET *41 0.00111075
*CONN
*I *228:B I *D sky130_fd_sc_hd__xor2_1
*I *217:Y O *D sky130_fd_sc_hd__nand2_1
*CAP
1 *228:B 0
2 *217:Y 0.000376075
3 *41:8 0.000376075
4 *41:8 *217:A 2.93845e-05
5 *41:8 *51:10 1.32939e-05
6 *227:B *41:8 3.34129e-05
7 *227:C *41:8 0.000183495
8 *228:A *41:8 9.90162e-05
*RES
1 *217:Y *41:8 30.3121 
2 *41:8 *228:B 23 
*END

*D_NET *42 0.000618034
*CONN
*I *219:A0 I *D sky130_fd_sc_hd__mux2_1
*I *218:Y O *D sky130_fd_sc_hd__nand2_1
*CAP
1 *219:A0 7.50124e-05
2 *218:Y 7.50124e-05
3 *219:A0 *202:A 9.7431e-05
4 *219:A0 *218:A 9.84794e-05
5 *28:10 *219:A0 0.000272099
*RES
1 *218:Y *219:A0 49.5007 
*END

*D_NET *43 0.00114417
*CONN
*I *220:B I *D sky130_fd_sc_hd__nor2_1
*I *221:B I *D sky130_fd_sc_hd__xor2_1
*I *219:X O *D sky130_fd_sc_hd__mux2_1
*CAP
1 *220:B 4.3067e-05
2 *221:B 6.38876e-05
3 *219:X 0.000312372
4 *43:12 0.000106955
5 *43:10 0.000312372
6 *43:10 *202:A 5.67058e-05
7 *43:10 *45:8 3.70094e-05
8 *43:10 *78:71 4.6318e-06
9 *220:A *220:B 9.5877e-05
10 *220:A *221:B 0.000111296
*RES
1 *219:X *43:10 43.6964 
2 *43:10 *43:12 15 
3 *43:12 *221:B 24.595 
4 *43:12 *220:B 24.0979 
*END

*D_NET *44 0.000977281
*CONN
*I *230:B1 I *D sky130_fd_sc_hd__a31o_1
*I *220:Y O *D sky130_fd_sc_hd__nor2_1
*CAP
1 *230:B1 0.000188727
2 *220:Y 0.000133376
3 *44:8 0.000322103
4 *230:B1 *222:B 9.67842e-05
5 *230:B1 *230:A3 9.91024e-05
6 *230:B1 *75:87 1.59071e-05
7 *230:B1 *79:60 3.22051e-05
8 *44:8 *45:8 8.16253e-05
9 *222:A *230:B1 7.45176e-06
*RES
1 *220:Y *44:8 40.61 
2 *44:8 *230:B1 41.9771 
*END

*D_NET *45 0.00111453
*CONN
*I *222:B I *D sky130_fd_sc_hd__xnor2_1
*I *230:A3 I *D sky130_fd_sc_hd__a31o_1
*I *221:X O *D sky130_fd_sc_hd__xor2_1
*CAP
1 *222:B 0.000129949
2 *230:A3 2.79866e-05
3 *221:X 0.000165947
4 *45:10 0.000157935
5 *45:8 0.000165947
6 *45:8 *76:49 0
7 *222:A *222:B 0.000116257
8 *222:A *230:A3 3.59884e-05
9 *230:B1 *222:B 9.67842e-05
10 *230:B1 *230:A3 9.91024e-05
11 *43:10 *45:8 3.70094e-05
12 *44:8 *45:8 8.16253e-05
*RES
1 *221:X *45:8 41.3143 
2 *45:8 *45:10 15 
3 *45:10 *230:A3 24.0979 
4 *45:10 *222:B 26.48 
*END

*D_NET *46 0.00142767
*CONN
*I *223:B1 I *D sky130_fd_sc_hd__o21ai_1
*I *244:C I *D sky130_fd_sc_hd__or3_1
*I *222:Y O *D sky130_fd_sc_hd__xnor2_1
*CAP
1 *223:B1 0.000120647
2 *244:C 0
3 *222:Y 0.00052826
4 *46:12 0.000120647
5 *46:10 0.00052826
6 *223:B1 *47:10 1.27503e-05
7 *223:B1 *65:10 2.3656e-05
8 *46:10 *47:10 0
9 *46:10 *65:10 0
10 *223:A1 *223:B1 8.00517e-06
11 *244:B *223:B1 8.54477e-05
*RES
1 *222:Y *46:10 45.2914 
2 *46:10 *46:12 15 
3 *46:12 *244:C 23 
4 *46:12 *223:B1 26.1589 
*END

*D_NET *47 0.00152561
*CONN
*I *234:A I *D sky130_fd_sc_hd__xnor2_1
*I *233:A_N I *D sky130_fd_sc_hd__and2b_1
*I *245:A I *D sky130_fd_sc_hd__and2_1
*I *223:Y O *D sky130_fd_sc_hd__o21ai_1
*CAP
1 *234:A 0
2 *233:A_N 6.57148e-05
3 *245:A 0
4 *223:Y 0.000138545
5 *47:23 0.000412726
6 *47:10 0.000485555
7 *233:A_N *234:B 5.70419e-05
8 *47:10 *65:10 0.000195423
9 *47:23 *71:10 0.000103637
10 *223:B1 *47:10 1.27503e-05
11 *244:B *47:10 3.17516e-05
12 *13:12 *47:10 2.24608e-05
13 *46:10 *47:10 0
*RES
1 *223:Y *47:10 41.3557 
2 *47:10 *245:A 38 
3 *47:10 *47:23 22.2707 
4 *47:23 *233:A_N 24.5743 
5 *47:23 *234:A 23 
*END

*D_NET *48 0.000867002
*CONN
*I *226:B1 I *D sky130_fd_sc_hd__a211o_1
*I *224:Y O *D sky130_fd_sc_hd__a21oi_1
*CAP
1 *226:B1 0
2 *224:Y 0.000228385
3 *48:10 0.000228385
4 *48:10 *75:6 0.000181125
5 *48:10 *76:12 0.000141869
6 *4:11 *48:10 0
7 *19:10 *48:10 8.72375e-05
*RES
1 *224:Y *48:10 43.365 
2 *48:10 *226:B1 38 
*END

*D_NET *49 0.00148759
*CONN
*I *243:A2 I *D sky130_fd_sc_hd__a211o_1
*I *226:C1 I *D sky130_fd_sc_hd__a211o_1
*I *225:X O *D sky130_fd_sc_hd__and3_1
*CAP
1 *243:A2 0
2 *226:C1 0.000195428
3 *225:X 8.07846e-05
4 *49:23 0.000215591
5 *49:6 0.000491803
6 *226:C1 *225:B 0
7 *226:C1 *226:A1 5.36646e-05
8 *226:C1 *50:8 1.03729e-05
9 *226:C1 *76:6 3.16665e-05
10 *226:C1 *76:27 1.41077e-05
11 *49:6 *76:27 5.70482e-05
12 *49:23 *243:A1 0.000223043
13 *49:23 *60:8 0
14 *49:23 *62:10 0
15 *49:23 *80:14 0.000114083
*RES
1 *225:X *49:6 24.0979 
2 *49:6 *226:C1 26.8736 
3 *49:6 *49:23 34.7229 
4 *49:23 *243:A2 23 
*END

*D_NET *50 0.00156594
*CONN
*I *237:A1 I *D sky130_fd_sc_hd__o21ai_1
*I *229:A I *D sky130_fd_sc_hd__xor2_1
*I *226:X O *D sky130_fd_sc_hd__a211o_1
*CAP
1 *237:A1 0
2 *229:A 0.000163837
3 *226:X 7.15014e-05
4 *50:27 0.000146211
5 *50:8 0.00038155
6 *229:A *226:A1 0
7 *229:A *229:B 0.000269781
8 *229:A *75:27 8.85749e-05
9 *229:A *76:36 3.82661e-05
10 *50:8 *226:A1 4.00259e-06
11 *50:8 *75:27 2.12126e-06
12 *50:8 *76:27 0.000143971
13 *50:27 *229:B 0.000215782
14 *50:27 *76:27 2.99716e-05
15 *50:27 *80:16 0
16 *50:27 *80:20 0
17 *226:C1 *50:8 1.03729e-05
*RES
1 *226:X *50:8 25.0714 
2 *50:8 *229:A 27.785 
3 *50:8 *50:27 32.9621 
4 *50:27 *237:A1 23 
*END

*D_NET *51 0.00107121
*CONN
*I *237:B1 I *D sky130_fd_sc_hd__o21ai_1
*I *227:Y O *D sky130_fd_sc_hd__nand3_1
*CAP
1 *237:B1 0
2 *227:Y 0.000314879
3 *51:10 0.000314879
4 *51:10 *78:10 0
5 *51:10 *79:44 0.00035701
6 *227:C *51:10 7.11496e-05
7 *41:8 *51:10 1.32939e-05
*RES
1 *227:Y *51:10 44.7736 
2 *51:10 *237:B1 38 
*END

*D_NET *52 0.00229968
*CONN
*I *229:B I *D sky130_fd_sc_hd__xor2_1
*I *237:A2 I *D sky130_fd_sc_hd__o21ai_1
*I *228:X O *D sky130_fd_sc_hd__xor2_1
*CAP
1 *229:B 0.000270939
2 *237:A2 4.55235e-05
3 *228:X 0.000224346
4 *52:8 0.000540808
5 *229:B *225:A 0.000100778
6 *229:B *60:8 2.3529e-05
7 *229:B *76:36 0.000269781
8 *229:B *79:44 6.96555e-05
9 *229:B *79:72 5.01986e-05
10 *229:B *80:20 0
11 *237:A2 *75:19 2.93845e-05
12 *52:8 *79:44 0.000189173
13 *52:8 *80:20 0
14 *229:A *229:B 0.000269781
15 *50:27 *229:B 0.000215782
*RES
1 *228:X *52:8 43.075 
2 *52:8 *237:A2 38.6214 
3 *52:8 *229:B 45.7886 
*END

*D_NET *53 0.00229942
*CONN
*I *231:A I *D sky130_fd_sc_hd__and2_1
*I *232:A I *D sky130_fd_sc_hd__xor2_1
*I *229:X O *D sky130_fd_sc_hd__xor2_1
*CAP
1 *231:A 0.000136321
2 *232:A 0
3 *229:X 0.000110443
4 *53:12 0.000591445
5 *53:8 0.000565567
6 *231:A *231:B 0.000285313
7 *231:A *55:10 0.000231227
8 *231:A *56:6 1.76557e-05
9 *53:8 *238:A 1.12487e-05
10 *53:8 *59:8 1.12487e-05
11 *53:8 *60:8 0
12 *53:8 *60:23 4.6318e-06
13 *53:8 *80:101 0.000114083
14 *53:12 *239:A 9.67842e-05
15 *53:12 *55:10 0.000123453
*RES
1 *229:X *53:8 40.2579 
2 *53:8 *53:12 23.7207 
3 *53:12 *232:A 23 
4 *53:12 *231:A 27.9507 
*END

*D_NET *54 0.00079925
*CONN
*I *231:B I *D sky130_fd_sc_hd__and2_1
*I *232:B I *D sky130_fd_sc_hd__xor2_1
*I *230:X O *D sky130_fd_sc_hd__a31o_1
*CAP
1 *231:B 7.60262e-05
2 *232:B 0
3 *230:X 0.000113423
4 *54:12 0.000102647
5 *54:8 0.000140044
6 *231:B *56:6 8.1796e-05
7 *231:A *231:B 0.000285313
*RES
1 *230:X *54:8 39.9057 
2 *54:8 *54:12 15.6214 
3 *54:12 *232:B 23 
4 *54:12 *231:B 26.5007 
*END

*D_NET *55 0.00160488
*CONN
*I *235:A I *D sky130_fd_sc_hd__nor2_1
*I *241:A1 I *D sky130_fd_sc_hd__o21ba_1
*I *231:X O *D sky130_fd_sc_hd__and2_1
*CAP
1 *235:A 0
2 *241:A1 7.21967e-05
3 *231:X 0.000444789
4 *55:12 7.21967e-05
5 *55:10 0.000444789
6 *241:A1 *235:B 5.48681e-05
7 *241:A1 *57:14 0.000161365
8 *231:A *55:10 0.000231227
9 *53:12 *55:10 0.000123453
*RES
1 *231:X *55:10 44.815 
2 *55:10 *55:12 15 
3 *55:12 *241:A1 25.5686 
4 *55:12 *235:A 23 
*END

*D_NET *56 0.00118029
*CONN
*I *234:B I *D sky130_fd_sc_hd__xnor2_1
*I *233:B I *D sky130_fd_sc_hd__and2b_1
*I *232:X O *D sky130_fd_sc_hd__xor2_1
*CAP
1 *234:B 0.000175509
2 *233:B 0
3 *232:X 0.000336392
4 *56:6 0.000511901
5 *231:A *56:6 1.76557e-05
6 *231:B *56:6 8.1796e-05
7 *233:A_N *234:B 5.70419e-05
*RES
1 *232:X *56:6 29.3386 
2 *56:6 *233:B 23 
3 *56:6 *234:B 26.5007 
*END

*D_NET *57 0.00248142
*CONN
*I *235:B I *D sky130_fd_sc_hd__nor2_1
*I *241:A2 I *D sky130_fd_sc_hd__o21ba_1
*I *233:X O *D sky130_fd_sc_hd__and2b_1
*CAP
1 *235:B 7.80192e-05
2 *241:A2 0
3 *233:X 7.99831e-05
4 *57:14 0.00104706
5 *57:8 0.00104902
6 *235:B *241:B1_N 7.86509e-06
7 *57:14 *241:B1_N 3.23857e-06
8 *241:A1 *235:B 5.48681e-05
9 *241:A1 *57:14 0.000161365
*RES
1 *233:X *57:8 39.2014 
2 *57:8 *57:14 28.3814 
3 *57:14 *241:A2 23 
4 *57:14 *235:B 25.5686 
*END

*D_NET *58 0.000860424
*CONN
*I *242:A I *D sky130_fd_sc_hd__xor2_1
*I *235:Y O *D sky130_fd_sc_hd__nor2_1
*CAP
1 *242:A 0.000260564
2 *235:Y 0.000128834
3 *58:8 0.000389398
4 *242:A *259:A 8.16279e-05
5 *58:8 *63:12 0
*RES
1 *235:Y *58:8 40.2579 
2 *58:8 *242:A 42.8057 
*END

*D_NET *59 0.00218966
*CONN
*I *238:A I *D sky130_fd_sc_hd__and2_1
*I *239:A I *D sky130_fd_sc_hd__nor2_1
*I *236:X O *D sky130_fd_sc_hd__and3_1
*CAP
1 *238:A 0.000191719
2 *239:A 0.0001726
3 *236:X 8.55371e-05
4 *59:8 0.000449856
5 *238:A *60:23 0
6 *238:A *63:6 9.84794e-05
7 *238:A *64:10 9.84794e-05
8 *239:A *60:23 0.000315857
9 *239:A *62:10 1.57571e-05
10 *239:A *80:101 0.000528014
11 *59:8 *80:101 0.000114083
12 *53:8 *238:A 1.12487e-05
13 *53:8 *59:8 1.12487e-05
14 *53:12 *239:A 9.67842e-05
*RES
1 *236:X *59:8 39.9057 
2 *59:8 *239:A 44.8357 
3 *59:8 *238:A 42.06 
*END

*D_NET *60 0.00165336
*CONN
*I *238:B I *D sky130_fd_sc_hd__and2_1
*I *239:B I *D sky130_fd_sc_hd__nor2_1
*I *237:Y O *D sky130_fd_sc_hd__o21ai_1
*CAP
1 *238:B 0
2 *239:B 0
3 *237:Y 0.000272227
4 *60:23 0.000275684
5 *60:10 0.000275684
6 *60:8 0.000272227
7 *60:8 *225:A 0.000110922
8 *60:8 *75:27 8.62783e-05
9 *60:8 *79:72 1.01436e-05
10 *60:8 *80:14 0
11 *60:8 *80:101 0
12 *60:23 *62:10 6.17437e-06
13 *229:B *60:8 2.3529e-05
14 *238:A *60:23 0
15 *239:A *60:23 0.000315857
16 *49:23 *60:8 0
17 *53:8 *60:8 0
18 *53:8 *60:23 4.6318e-06
*RES
1 *237:Y *60:8 43.075 
2 *60:8 *60:10 15 
3 *60:10 *239:B 23 
4 *60:10 *60:23 36.09 
5 *60:23 *238:B 23 
*END

*D_NET *61 0.000779302
*CONN
*I *243:B1 I *D sky130_fd_sc_hd__a211o_1
*I *240:A I *D sky130_fd_sc_hd__or2_1
*I *238:X O *D sky130_fd_sc_hd__and2_1
*CAP
1 *243:B1 0.000145418
2 *240:A 0
3 *238:X 3.32164e-05
4 *61:6 0.000178635
5 *243:B1 *243:A1 5.90675e-06