*SPEF "ieee 1481-1999"
*DESIGN "SARSA_VENTAJA_e4"
*DATE "11:21:59 Wednesday September 17, 2025"
*VENDOR "The OpenROAD Project"
*PROGRAM "OpenROAD"
*VERSION "edf00dff99f6c40d67a30c0e22a8191c5d2ed9d6"
*DESIGN_FLOW "NAME_SCOPE LOCAL" "PIN_CAP NONE"
*DIVIDER /
*DELIMITER :
*BUS_DELIMITER []
*T_UNIT 1 NS
*C_UNIT 1 PF
*R_UNIT 1 OHM
*L_UNIT 1 HENRY

*NAME_MAP
*1 A[0]
*2 A[1]
*3 B[0]
*4 B[1]
*5 P[0]
*6 P[1]
*7 P[2]
*8 P[3]
*11 _0_
*12 _1_
*13 _2_
*14 net1
*15 net2
*16 net3
*17 net4
*18 net5
*19 net6
*20 net7
*21 net8
*22 FILLER_0_15
*23 FILLER_0_27
*24 FILLER_0_29
*25 FILLER_0_3
*26 FILLER_0_41
*27 FILLER_0_49
*28 FILLER_0_55
*29 FILLER_0_57
*30 FILLER_0_69
*31 FILLER_1_15
*32 FILLER_1_27
*33 FILLER_1_3
*34 FILLER_1_39
*35 FILLER_1_51
*36 FILLER_1_55
*37 FILLER_1_57
*38 FILLER_1_69
*39 FILLER_2_15
*40 FILLER_2_27
*41 FILLER_2_29
*42 FILLER_2_3
*43 FILLER_2_41
*44 FILLER_2_53
*45 FILLER_2_65
*46 FILLER_2_77
*47 FILLER_3_15
*48 FILLER_3_27
*49 FILLER_3_3
*50 FILLER_3_39
*51 FILLER_3_51
*52 FILLER_3_55
*53 FILLER_3_57
*54 FILLER_3_69
*55 FILLER_4_15
*56 FILLER_4_27
*57 FILLER_4_29
*58 FILLER_4_3
*59 FILLER_4_41
*60 FILLER_4_53
*61 FILLER_4_65
*62 FILLER_4_77
*63 FILLER_5_15
*64 FILLER_5_27
*65 FILLER_5_3
*66 FILLER_5_39
*67 FILLER_5_46
*68 FILLER_5_54
*69 FILLER_5_57
*70 FILLER_5_69
*71 FILLER_6_19
*72 FILLER_6_27
*73 FILLER_6_29
*74 FILLER_6_41
*75 FILLER_6_53
*76 FILLER_6_65
*77 FILLER_6_7
*78 FILLER_6_77
*79 FILLER_7_25
*80 FILLER_7_37
*81 FILLER_7_65
*82 FILLER_7_7
*83 FILLER_7_74
*84 FILLER_8_15
*85 FILLER_8_27
*86 FILLER_8_29
*87 FILLER_8_3
*88 FILLER_8_41
*89 FILLER_8_57
*90 FILLER_8_69
*91 FILLER_9_15
*92 FILLER_9_27
*93 FILLER_9_29
*94 FILLER_9_3
*95 FILLER_9_41
*96 FILLER_9_48
*97 FILLER_9_55
*98 FILLER_9_57
*99 FILLER_9_62
*100 FILLER_9_74
*101 FILLER_9_80
*102 PHY_EDGE_ROW_0_Left_10
*103 PHY_EDGE_ROW_0_Right_0
*104 PHY_EDGE_ROW_1_Left_11
*105 PHY_EDGE_ROW_1_Right_1
*106 PHY_EDGE_ROW_2_Left_12
*107 PHY_EDGE_ROW_2_Right_2
*108 PHY_EDGE_ROW_3_Left_13
*109 PHY_EDGE_ROW_3_Right_3
*110 PHY_EDGE_ROW_4_Left_14
*111 PHY_EDGE_ROW_4_Right_4
*112 PHY_EDGE_ROW_5_Left_15
*113 PHY_EDGE_ROW_5_Right_5
*114 PHY_EDGE_ROW_6_Left_16
*115 PHY_EDGE_ROW_6_Right_6
*116 PHY_EDGE_ROW_7_Left_17
*117 PHY_EDGE_ROW_7_Right_7
*118 PHY_EDGE_ROW_8_Left_18
*119 PHY_EDGE_ROW_8_Right_8
*120 PHY_EDGE_ROW_9_Left_19
*121 PHY_EDGE_ROW_9_Right_9
*122 TAP_TAPCELL_ROW_0_20
*123 TAP_TAPCELL_ROW_0_21
*124 TAP_TAPCELL_ROW_1_22
*125 TAP_TAPCELL_ROW_2_23
*126 TAP_TAPCELL_ROW_3_24
*127 TAP_TAPCELL_ROW_4_25
*128 TAP_TAPCELL_ROW_5_26
*129 TAP_TAPCELL_ROW_6_27
*130 TAP_TAPCELL_ROW_7_28
*131 TAP_TAPCELL_ROW_8_29
*132 TAP_TAPCELL_ROW_9_30
*133 TAP_TAPCELL_ROW_9_31
*134 _3_
*135 _4_
*136 _5_
*137 _6_
*138 _7_
*139 _8_
*140 _9_
*141 input1
*142 input2
*143 input3
*144 input4
*145 output5
*146 output6
*147 output7
*148 output8

*PORTS
A[0] I
A[1] I
B[0] I
B[1] I
P[0] O
P[1] O
P[2] O
P[3] O

*D_NET *1 0.000980411
*CONN
*P A[0] I
*I *141:A I *D sky130_fd_sc_hd__buf_1
*CAP
1 A[0] 0.000490205
2 *141:A 0.000490205
3 *141:A *142:A 0
*RES
1 A[0] *141:A 48.73 
*END

*D_NET *2 0.000981509
*CONN
*P A[1] I
*I *142:A I *D sky130_fd_sc_hd__buf_1
*CAP
1 A[1] 0.000490754
2 *142:A 0.000490754
3 *142:A *144:A 0
4 *141:A *142:A 0
*RES
1 A[1] *142:A 48.73 
*END

*D_NET *3 0.000542191
*CONN
*P B[0] I
*I *143:A I *D sky130_fd_sc_hd__buf_1
*CAP
1 B[0] 0.000235016
2 *143:A 0.000235016
3 *143:A P[2] 7.21596e-05
*RES
1 B[0] *143:A 47.7832 
*END

*D_NET *4 0.000982606
*CONN
*P B[1] I
*I *144:A I *D sky130_fd_sc_hd__buf_1
*CAP
1 B[1] 0.000491303
2 *144:A 0.000491303
3 *142:A *144:A 0
*RES
1 B[1] *144:A 48.73 
*END

*D_NET *5 0.000761479
*CONN
*P P[0] O
*I *145:X O *D sky130_fd_sc_hd__buf_2
*CAP
1 P[0] 8.65766e-05
2 *145:X 0.000278539
3 *5:14 0.000365116
4 P[0] P[3] 1.5289e-05
5 *5:14 P[3] 1.59585e-05
*RES
1 *145:X *5:14 49.9 
2 *5:14 P[0] 0.382667 
*END

*D_NET *6 0.000993477
*CONN
*P P[1] O
*I *146:X O *D sky130_fd_sc_hd__buf_2
*CAP
1 P[1] 0.000496739
2 *146:X 0.000496739
*RES
1 *146:X P[1] 47.86 
*END

*D_NET *7 0.000537285
*CONN
*P P[2] O
*I *147:X O *D sky130_fd_sc_hd__buf_2
*CAP
1 P[2] 0.000232563
2 *147:X 0.000232563
3 P[2] *16:10 0
4 *143:A P[2] 7.21596e-05
*RES
1 *147:X P[2] 47.1648 
*END

*D_NET *8 0.000530481
*CONN
*P P[3] O
*I *148:X O *D sky130_fd_sc_hd__buf_2
*CAP
1 P[3] 0.000249617
2 *148:X 0.000249617
3 P[0] P[3] 1.5289e-05
4 *5:14 P[3] 1.59585e-05
*RES
1 *148:X P[3] 47.1648 
*END

*D_NET *11 0.00133455
*CONN
*I *137:B I *D sky130_fd_sc_hd__and2b_1
*I *136:X O *D sky130_fd_sc_hd__or4b_1
*CAP
1 *137:B 0.000379466
2 *136:X 0.000287807
3 *11:8 0.000667273
*RES
1 *136:X *11:8 43.4271 
2 *11:8 *137:B 44.3386 
*END

*D_NET *12 0.00212916
*CONN
*I *139:A2 I *D sky130_fd_sc_hd__a21o_1
*I *138:X O *D sky130_fd_sc_hd__o21ba_1
*CAP
1 *139:A2 0
2 *138:X 0.000941779
3 *12:12 0.0001228
4 *12:6 0.00106458
*RES
1 *138:X *12:6 35.0557 
2 *12:6 *12:12 31.9057 
3 *12:12 *139:A2 23 
*END

*D_NET *13 0.00031545
*CONN
*I *140:C I *D sky130_fd_sc_hd__and3_1
*I *134:Y O *D sky130_fd_sc_hd__nand2_1
*CAP
1 *140:C 2.63005e-05
2 *134:Y 2.63005e-05
3 *140:C *134:B 7.31859e-05
4 *140:C *16:21 0.000172008
5 *140:C *20:8 1.76557e-05
*RES
1 *134:Y *140:C 47.885 
*END

*D_NET *14 0.00282389
*CONN
*I *138:A2 I *D sky130_fd_sc_hd__o21ba_1
*I *134:B I *D sky130_fd_sc_hd__nand2_1
*I *136:C I *D sky130_fd_sc_hd__or4b_1
*I *135:D I *D sky130_fd_sc_hd__and4_1
*I *141:X O *D sky130_fd_sc_hd__buf_1
*CAP
1 *138:A2 0.000233582
2 *134:B 0.000112827
3 *136:C 0
4 *135:D 0.000150571
5 *141:X 0.000105517
6 *14:12 0.000475888
7 *14:8 0.000551589
8 *134:B *136:D_N 0.000143655
9 *134:B *140:A 0.000106345
10 *134:B *140:B 0.000173278
11 *134:B *16:21 2.43301e-05
12 *134:B *20:8 5.67058e-05
13 *135:D *139:A1 2.4754e-05
14 *135:D *140:A 8.52481e-05
15 *135:D *140:B 4.95081e-05
16 *135:D *15:20 5.67058e-05
17 *135:D *15:27 0.000258245
18 *135:D *17:31 0.00014196
19 *14:8 *17:23 0
20 *14:12 *17:23 0
21 *14:12 *17:31 0
22 *140:C *134:B 7.31859e-05
*RES
1 *141:X *14:8 39.9057 
2 *14:8 *14:12 18.3143 
3 *14:12 *135:D 28.4064 
4 *14:12 *136:C 23 
5 *14:12 *134:B 28.4064 
6 *14:8 *138:A2 41.9771 
*END

*D_NET *15 0.00256815
*CONN
*I *138:B1_N I *D sky130_fd_sc_hd__o21ba_1
*I *140:A I *D sky130_fd_sc_hd__and3_1
*I *136:A I *D sky130_fd_sc_hd__or4b_1
*I *135:B I *D sky130_fd_sc_hd__and4_1
*I *142:X O *D sky130_fd_sc_hd__buf_1
*CAP
1 *138:B1_N 0
2 *140:A 8.46505e-05
3 *136:A 0
4 *135:B 0
5 *142:X 0.000196021
6 *15:27 0.000136274
7 *15:20 0.000224819
8 *15:10 0.000369216
9 *140:A *136:D_N 0.00010018
10 *140:A *16:25 0.000247574
11 *15:10 *17:6 5.3304e-05
12 *15:10 *17:12 0.000169665
13 *15:10 *17:23 8.60475e-05
14 *15:20 *139:A1 5.50106e-05
15 *15:20 *17:12 0.00014411
16 *15:20 *17:31 0
17 *15:27 *139:A1 0.00010018
18 *15:27 *16:25 9.45591e-05
19 *134:B *140:A 0.000106345
20 *135:D *140:A 8.52481e-05
21 *135:D *15:20 5.67058e-05
22 *135:D *15:27 0.000258245
*RES
1 *142:X *15:10 41.8321 
2 *15:10 *15:20 18.9979 
3 *15:20 *135:B 23 
4 *15:20 *15:27 3.00357 
5 *15:27 *136:A 23 
6 *15:27 *140:A 27.1221 
7 *15:10 *138:B1_N 38 
*END

*D_NET *16 0.00490681
*CONN
*I *136:D_N I *D sky130_fd_sc_hd__or4b_1
*I *135:A I *D sky130_fd_sc_hd__and4_1
*I *139:A1 I *D sky130_fd_sc_hd__a21o_1
*I *134:A I *D sky130_fd_sc_hd__nand2_1
*I *143:X O *D sky130_fd_sc_hd__buf_1
*CAP
1 *136:D_N 5.8457e-05
2 *135:A 0
3 *139:A1 0.000711703
4 *134:A 0
5 *143:X 0.000340355
6 *16:25 0.00110008
7 *16:21 0.000648555
8 *16:12 0.00020172
9 *16:10 0.000340355
10 *139:A1 *139:B1 0.000427931
11 *139:A1 *21:6 0.000105518
12 *16:21 *20:8 9.88574e-06
13 P[2] *16:10 0
14 *134:B *136:D_N 0.000143655
15 *134:B *16:21 2.43301e-05
16 *135:D *139:A1 2.4754e-05
17 *140:A *136:D_N 0.00010018
18 *140:A *16:25 0.000247574
19 *140:C *16:21 0.000172008
20 *15:20 *139:A1 5.50106e-05
21 *15:27 *139:A1 0.00010018
22 *15:27 *16:25 9.45591e-05
*RES
1 *143:X *16:10 42.785 
2 *16:10 *16:12 15 
3 *16:12 *134:A 23 
4 *16:12 *16:21 3.85286 
5 *16:21 *16:25 6.35929 
6 *16:25 *139:A1 38.3907 
7 *16:25 *135:A 23 
8 *16:21 *136:D_N 25.4236 
*END

*D_NET *17 0.00289372
*CONN
*I *138:A1 I *D sky130_fd_sc_hd__o21ba_1
*I *140:B I *D sky130_fd_sc_hd__and3_1
*I *136:B I *D sky130_fd_sc_hd__or4b_1
*I *135:C I *D sky130_fd_sc_hd__and4_1
*I *144:X O *D sky130_fd_sc_hd__buf_1
*CAP
1 *138:A1 0
2 *140:B 0.000261641
3 *136:B 0
4 *135:C 0
5 *144:X 0.000144345
6 *17:31 0.000538838
7 *17:23 0.000485887
8 *17:12 0.000146051
9 *17:6 0.000499087
10 *134:B *140:B 0.000173278
11 *135:D *140:B 4.95081e-05
12 *135:D *17:31 0.00014196
13 *14:8 *17:23 0
14 *14:12 *17:23 0
15 *14:12 *17:31 0
16 *15:10 *17:6 5.3304e-05
17 *15:10 *17:12 0.000169665
18 *15:10 *17:23 8.60475e-05
19 *15:20 *17:12 0.00014411
20 *15:20 *17:31 0
*RES
1 *144:X *17:6 25.5271 
2 *17:6 *17:12 34.3707 
3 *17:12 *135:C 23 
4 *17:6 *17:23 19.6607 
5 *17:23 *17:31 20.3857 
6 *17:31 *136:B 23 
7 *17:31 *140:B 27.4329 
8 *17:23 *138:A1 38 
*END

*D_NET *18 0.000682425
*CONN
*I *145:A I *D sky130_fd_sc_hd__buf_2
*I *139:X O *D sky130_fd_sc_hd__a21o_1
*CAP
1 *145:A 0
2 *139:X 0.000341213
3 *18:6 0.000341213
*RES
1 *139:X *18:6 29.3386 
2 *18:6 *145:A 23 
*END

*D_NET *19 0.00140266
*CONN
*I *146:A I *D sky130_fd_sc_hd__buf_2
*I *137:X O *D sky130_fd_sc_hd__and2b_1
*CAP
1 *146:A 0
2 *137:X 0
3 *19:10 0.000701328
4 *19:6 0.000701328
*RES
1 *137:X *19:6 38 
2 *19:6 *19:10 28.5264 
3 *19:10 *146:A 23 
*END

*D_NET *20 0.000550536
*CONN
*I *147:A I *D sky130_fd_sc_hd__buf_2
*I *140:X O *D sky130_fd_sc_hd__and3_1
*CAP
1 *147:A 0
2 *140:X 0.000233144
3 *20:8 0.000233144
4 *134:B *20:8 5.67058e-05
5 *140:C *20:8 1.76557e-05
6 *16:21 *20:8 9.88574e-06
*RES
1 *140:X *20:8 27.3293 
2 *20:8 *147:A 23 
*END

*D_NET *21 0.00434675
*CONN
*I *139:B1 I *D sky130_fd_sc_hd__a21o_1
*I *148:A I *D sky130_fd_sc_hd__buf_2
*I *137:A_N I *D sky130_fd_sc_hd__and2b_1
*I *135:X O *D sky130_fd_sc_hd__and4_1
*CAP
1 *139:B1 0.000453048
2 *148:A 0
3 *137:A_N 0.000127718
4 *135:X 0.000293887
5 *21:23 0.000887965
6 *21:10 0.00115972
7 *21:6 0.000890969
8 *139:A1 *139:B1 0.000427931
9 *139:A1 *21:6 0.000105518
*RES
1 *135:X *21:6 27.4329 
2 *21:6 *21:10 17.2579 
3 *21:10 *137:A_N 40.2579 
4 *21:10 *21:23 31.3436 
5 *21:23 *148:A 23 
6 *21:6 *139:B1 33.5436 
*END
