*SPEF "ieee 1481-1999"
*DESIGN "mult4_SARSA_RUIDO_e9_SARSA_RUIDO_e9_SarsaNStepsRuido_e9_SarsaNStepsRuido_e9"
*DATE "11:51:39 Wednesday September 17, 2025"
*VENDOR "The OpenROAD Project"
*PROGRAM "OpenROAD"
*VERSION "edf00dff99f6c40d67a30c0e22a8191c5d2ed9d6"
*DESIGN_FLOW "NAME_SCOPE LOCAL" "PIN_CAP NONE"
*DIVIDER /
*DELIMITER :
*BUS_DELIMITER []
*T_UNIT 1 NS
*C_UNIT 1 PF
*R_UNIT 1 OHM
*L_UNIT 1 HENRY

*NAME_MAP
*1 A[0]
*2 A[1]
*3 A[2]
*4 A[3]
*5 B[0]
*6 B[1]
*7 B[2]
*8 B[3]
*9 P[0]
*10 P[1]
*11 P[2]
*12 P[3]
*13 P[4]
*14 P[5]
*15 P[6]
*16 P[7]
*19 _000_
*20 _001_
*21 _002_
*22 _003_
*23 _004_
*24 _005_
*25 _006_
*26 _007_
*27 _008_
*28 _009_
*29 _010_
*30 _011_
*31 _012_
*32 _013_
*33 _014_
*34 _015_
*35 _016_
*36 _017_
*37 _018_
*38 _019_
*39 _020_
*40 _021_
*41 _022_
*42 _023_
*43 _024_
*44 _025_
*45 _026_
*46 _027_
*47 _028_
*48 _029_
*49 _030_
*50 _031_
*51 _032_
*52 _033_
*53 _034_
*54 _035_
*55 _036_
*56 _037_
*57 _038_
*58 _039_
*59 _040_
*60 _041_
*61 _042_
*62 _043_
*63 _044_
*64 _045_
*65 _046_
*66 _047_
*67 _048_
*68 _049_
*69 _050_
*70 net1
*71 net10
*72 net11
*73 net12
*74 net13
*75 net14
*76 net15
*77 net16
*78 net2
*79 net3
*80 net4
*81 net5
*82 net6
*83 net7
*84 net8
*85 net9
*86 FILLER_0_19
*87 FILLER_0_3
*88 FILLER_0_43
*89 FILLER_0_49
*90 FILLER_0_55
*91 FILLER_0_57
*92 FILLER_0_69
*93 FILLER_0_7
*94 FILLER_1_3
*95 FILLER_1_33
*96 FILLER_1_41
*97 FILLER_1_54
*98 FILLER_1_57
*99 FILLER_1_69
*100 FILLER_1_73
*101 FILLER_1_77
*102 FILLER_2_16
*103 FILLER_2_21
*104 FILLER_2_27
*105 FILLER_2_29
*106 FILLER_2_41
*107 FILLER_2_51
*108 FILLER_2_60
*109 FILLER_2_7
*110 FILLER_2_76
*111 FILLER_3_16
*112 FILLER_3_3
*113 FILLER_3_46
*114 FILLER_3_54
*115 FILLER_3_57
*116 FILLER_3_65
*117 FILLER_3_71
*118 FILLER_3_79
*119 FILLER_3_8
*120 FILLER_4_14
*121 FILLER_4_24
*122 FILLER_4_29
*123 FILLER_4_37
*124 FILLER_4_42
*125 FILLER_4_54
*126 FILLER_4_6
*127 FILLER_4_64
*128 FILLER_4_76
*129 FILLER_5_29
*130 FILLER_5_53
*131 FILLER_5_6
*132 FILLER_5_63
*133 FILLER_6_12
*134 FILLER_6_20
*135 FILLER_6_26
*136 FILLER_6_29
*137 FILLER_6_3
*138 FILLER_6_35
*139 FILLER_6_39
*140 FILLER_6_51
*141 FILLER_6_63
*142 FILLER_6_75
*143 FILLER_7_12
*144 FILLER_7_18
*145 FILLER_7_27
*146 FILLER_7_44
*147 FILLER_7_55
*148 FILLER_7_57
*149 FILLER_7_6
*150 FILLER_7_66
*151 FILLER_7_74
*152 FILLER_8_20
*153 FILLER_8_29
*154 FILLER_8_3
*155 FILLER_8_40
*156 FILLER_8_52
*157 FILLER_8_71
*158 FILLER_8_79
*159 FILLER_9_15
*160 FILLER_9_27
*161 FILLER_9_29
*162 FILLER_9_3
*163 FILLER_9_55
*164 FILLER_9_67
*165 FILLER_9_75
*166 PHY_EDGE_ROW_0_Left_10
*167 PHY_EDGE_ROW_0_Right_0
*168 PHY_EDGE_ROW_1_Left_11
*169 PHY_EDGE_ROW_1_Right_1
*170 PHY_EDGE_ROW_2_Left_12
*171 PHY_EDGE_ROW_2_Right_2
*172 PHY_EDGE_ROW_3_Left_13
*173 PHY_EDGE_ROW_3_Right_3
*174 PHY_EDGE_ROW_4_Left_14
*175 PHY_EDGE_ROW_4_Right_4
*176 PHY_EDGE_ROW_5_Left_15
*177 PHY_EDGE_ROW_5_Right_5
*178 PHY_EDGE_ROW_6_Left_16
*179 PHY_EDGE_ROW_6_Right_6
*180 PHY_EDGE_ROW_7_Left_17
*181 PHY_EDGE_ROW_7_Right_7
*182 PHY_EDGE_ROW_8_Left_18
*183 PHY_EDGE_ROW_8_Right_8
*184 PHY_EDGE_ROW_9_Left_19
*185 PHY_EDGE_ROW_9_Right_9
*186 TAP_TAPCELL_ROW_0_20
*187 TAP_TAPCELL_ROW_0_21
*188 TAP_TAPCELL_ROW_1_22
*189 TAP_TAPCELL_ROW_2_23
*190 TAP_TAPCELL_ROW_3_24
*191 TAP_TAPCELL_ROW_4_25
*192 TAP_TAPCELL_ROW_5_26
*193 TAP_TAPCELL_ROW_6_27
*194 TAP_TAPCELL_ROW_7_28
*195 TAP_TAPCELL_ROW_8_29
*196 TAP_TAPCELL_ROW_9_30
*197 TAP_TAPCELL_ROW_9_31
*198 _051_
*199 _052_
*200 _053_
*201 _054_
*202 _055_
*203 _056_
*204 _057_
*205 _058_
*206 _059_
*207 _060_
*208 _061_
*209 _062_
*210 _063_
*211 _064_
*212 _065_
*213 _066_
*214 _067_
*215 _068_
*216 _069_
*217 _070_
*218 _071_
*219 _072_
*220 _073_
*221 _074_
*222 _075_
*223 _076_
*224 _077_
*225 _078_
*226 _079_
*227 _080_
*228 _081_
*229 _082_
*230 _083_
*231 _084_
*232 _085_
*233 _086_
*234 _087_
*235 _088_
*236 _089_
*237 _090_
*238 _091_
*239 _092_
*240 _093_
*241 _094_
*242 _095_
*243 _096_
*244 _097_
*245 _098_
*246 _099_
*247 _100_
*248 _101_
*249 _102_
*250 _103_
*251 _104_
*252 _105_
*253 _106_
*254 _107_
*255 _108_
*256 _109_
*257 input1
*258 input2
*259 input3
*260 input4
*261 input5
*262 input6
*263 input7
*264 input8
*265 output10
*266 output11
*267 output12
*268 output13
*269 output14
*270 output15
*271 output16
*272 output9

*PORTS
A[0] I
A[1] I
A[2] I
A[3] I
B[0] I
B[1] I
B[2] I
B[3] I
P[0] O
P[1] O
P[2] O
P[3] O
P[4] O
P[5] O
P[6] O
P[7] O

*D_NET *1 0.00125606
*CONN
*P A[0] I
*I *257:A I *D sky130_fd_sc_hd__clkbuf_2
*CAP
1 A[0] 0.00054555
2 *257:A 0.00054555
3 *257:A P[0] 0
4 *257:A *204:A 2.13012e-05
5 *257:A *204:B 0.000143655
6 *257:A *258:A 0
7 *257:A *20:16 0
*RES
1 A[0] *257:A 49.2479 
*END

*D_NET *2 0.00106348
*CONN
*P A[1] I
*I *258:A I *D sky130_fd_sc_hd__clkbuf_2
*CAP
1 A[1] 0.000471399
2 *258:A 0.000471399
3 *258:A P[2] 0
4 *258:A *212:A 1.24376e-05
5 *258:A *212:B 7.44161e-06
6 *258:A *72:8 0.000100805
7 *257:A *258:A 0
*RES
1 A[1] *258:A 47.9221 
*END

*D_NET *3 0.00071699
*CONN
*P A[2] I
*I *259:A I *D sky130_fd_sc_hd__buf_1
*CAP
1 A[2] 0.000330094
2 *259:A 0
3 *3:17 0.000330094
4 *3:17 *263:A 2.79122e-05
5 *3:17 *5:17 2.88889e-05
6 *3:17 *80:14 0
*RES
1 A[2] *3:17 27.8627 
2 *3:17 *259:A 23 
*END

*D_NET *4 0.000616196
*CONN
*P A[3] I
*I *260:A I *D sky130_fd_sc_hd__buf_1
*CAP
1 A[3] 0.000297475
2 *260:A 0.000297475
3 *260:A *263:A 2.12457e-05
*RES
1 A[3] *260:A 49.8062 
*END

*D_NET *5 0.000747356
*CONN
*P B[0] I
*I *261:A I *D sky130_fd_sc_hd__buf_1
*CAP
1 B[0] 0.000346167
2 *261:A 0
3 *5:17 0.000346167
4 *5:17 *224:A2 0
5 *5:17 *6:17 2.61329e-05
6 *5:17 *81:10 0
7 *3:17 *5:17 2.88889e-05
*RES
1 B[0] *5:17 28.2148 
2 *5:17 *261:A 23 
*END

*D_NET *6 0.000717883
*CONN
*P B[1] I
*I *262:A I *D sky130_fd_sc_hd__clkbuf_2
*CAP
1 B[1] 0.000345875
2 *262:A 0
3 *6:17 0.000345875
4 *5:17 *6:17 2.61329e-05
*RES
1 B[1] *6:17 27.6348 
2 *6:17 *262:A 23 
*END

*D_NET *7 0.000994839
*CONN
*P B[2] I
*I *263:A I *D sky130_fd_sc_hd__clkbuf_2
*CAP
1 B[2] 0.00044398
2 *263:A 0.00044398
3 *263:A *235:C 1.01436e-05
4 *263:A *79:32 4.75766e-05
5 *260:A *263:A 2.12457e-05
6 *3:17 *263:A 2.79122e-05
*RES
1 B[2] *263:A 47.9463 
*END

*D_NET *8 0.00122586
*CONN
*P B[3] I
*I *264:A I *D sky130_fd_sc_hd__dlymetal6s2s_1
*CAP
1 B[3] 0.000569616
2 *264:A 0
3 *8:11 0.000569616
4 *8:11 *251:B 5.50049e-05
5 *8:11 *64:25 2.24366e-06
6 *8:11 *84:8 2.93845e-05
*RES
1 B[3] *8:11 27.18 
2 *8:11 *264:A 23 
*END

*D_NET *9 0.000992516
*CONN
*P P[0] O
*I *272:X O *D sky130_fd_sc_hd__buf_2
*CAP
1 P[0] 0.000447018
2 *272:X 0.000447018
3 P[0] P[1] 0
4 P[0] *204:B 8.52481e-05
5 P[0] *205:A2 1.32314e-05
6 *257:A P[0] 0
*RES
1 *272:X P[0] 47.0936 
*END

*D_NET *10 0.00126778
*CONN
*P P[1] O
*I *265:X O *D sky130_fd_sc_hd__buf_2
*CAP
1 P[1] 0.000576139
2 *265:X 0.000576139
3 P[1] *205:A2 5.50049e-05
4 P[1] *205:B1 5.29672e-05
5 P[1] *265:A 7.53384e-06
6 P[0] P[1] 0
*RES
1 *265:X P[1] 48.9993 
*END

*D_NET *11 0.000988375
*CONN
*P P[2] O
*I *266:X O *D sky130_fd_sc_hd__buf_2
*CAP
1 P[2] 0.0004911
2 *266:X 0.0004911
3 P[2] *72:8 6.17437e-06
4 *258:A P[2] 0
*RES
1 *266:X P[2] 47.86 
*END

*D_NET *12 0.00053845
*CONN
*P P[3] O
*I *267:X O *D sky130_fd_sc_hd__buf_2
*CAP
1 P[3] 0.00025512
2 *267:X 0.00025512
3 P[3] P[4] 0
4 P[3] *73:10 2.82105e-05
*RES
1 *267:X P[3] 47.5169 
*END

*D_NET *13 0.000593571
*CONN
*P P[4] O
*I *268:X O *D sky130_fd_sc_hd__buf_2
*CAP
1 P[4] 0.000291858
2 *268:X 0.000291858
3 P[4] P[5] 0
4 P[4] *74:10 9.85586e-06
5 P[3] P[4] 0
*RES
1 *268:X P[4] 47.2507 
*END

*D_NET *14 0.000509152
*CONN
*P P[5] O
*I *269:X O *D sky130_fd_sc_hd__buf_2
*CAP
1 P[5] 0.000210888
2 *269:X 0.000210888
3 P[5] P[6] 8.73764e-05
4 P[4] P[5] 0
*RES
1 *269:X P[5] 47.1648 
*END

*D_NET *15 0.000692844
*CONN
*P P[6] O
*I *270:X O *D sky130_fd_sc_hd__buf_2
*CAP
1 P[6] 0.000282302
2 *270:X 0.000282302
3 P[6] *76:10 4.08641e-05
4 P[5] P[6] 8.73764e-05
*RES
1 *270:X P[6] 48.5734 
*END

*D_NET *16 0.00147741
*CONN
*P P[7] O
*I *271:X O *D sky130_fd_sc_hd__buf_2
*CAP
1 P[7] 0.000487361
2 *271:X 0.000147871
3 *16:8 0.000635232
4 *16:8 *63:33 0.000199412
5 *16:8 *68:10 7.53384e-06
*RES
1 *271:X *16:8 40.5271 
2 *16:8 P[7] 10.5021 
*END

*D_NET *19 0.00376291
*CONN
*I *225:A1 I *D sky130_fd_sc_hd__a211o_1
*I *209:A1 I *D sky130_fd_sc_hd__o211a_1
*I *204:A I *D sky130_fd_sc_hd__nor2_1
*I *198:Y O *D sky130_fd_sc_hd__inv_2
*CAP
1 *225:A1 0.000391586
2 *209:A1 0
3 *204:A 0.000411158
4 *198:Y 0.000200328
5 *19:10 0.000518106
6 *19:8 0.000698863
7 *204:A *204:B 1.76557e-05
8 *204:A *212:A 0
9 *204:A *212:B 0
10 *204:A *272:A 0.000242171
11 *204:A *20:10 1.14452e-05
12 *204:A *20:16 0.000193388
13 *204:A *70:8 5.15848e-05
14 *225:A1 *221:A_N 0.000224605
15 *225:A1 *225:C1 1.37232e-05
16 *225:A1 *21:16 5.3304e-05
17 *225:A1 *43:10 0.000168985
18 *225:A1 *78:33 1.34354e-05
19 *225:A1 *78:57 6.03737e-05
20 *225:A1 *84:35 0
21 *19:8 *20:10 9.67842e-05
22 *19:8 *70:35 0.000139357
23 *19:8 *70:42 8.52481e-05
24 *19:10 *20:10 0.000124102
25 *19:10 *70:8 1.86869e-05
26 *19:10 *78:31 0
27 *19:10 *78:33 6.7177e-06
28 *257:A *204:A 2.13012e-05
*RES
1 *198:Y *19:8 41.9564 
2 *19:8 *19:10 2.25786 
3 *19:10 *204:A 46.8864 
4 *19:10 *209:A1 38 
5 *19:8 *225:A1 46.7207 
*END

*D_NET *20 0.0023913
*CONN
*I *209:A2 I *D sky130_fd_sc_hd__o211a_1
*I *204:B I *D sky130_fd_sc_hd__nor2_1
*I *205:A2 I *D sky130_fd_sc_hd__a31o_1
*I *199:Y O *D sky130_fd_sc_hd__inv_2
*CAP
1 *209:A2 0
2 *204:B 0.000106418
3 *205:A2 0.000157179
4 *199:Y 0.000153431
5 *20:16 0.000413462
6 *20:10 0.000303297
7 *204:B *272:A 0.000266773
8 *205:A2 *205:A3 8.1796e-05
9 *20:10 *78:33 5.62433e-05
10 *20:16 *205:A3 0.000101647
11 *20:16 *272:A 5.90675e-06
12 *20:16 *78:33 4.6318e-06
13 P[0] *204:B 8.52481e-05
14 P[0] *205:A2 1.32314e-05
15 P[1] *205:A2 5.50049e-05
16 *204:A *204:B 1.76557e-05
17 *204:A *20:10 1.14452e-05
18 *204:A *20:16 0.000193388
19 *257:A *204:B 0.000143655
20 *257:A *20:16 0
21 *19:8 *20:10 9.67842e-05
22 *19:10 *20:10 0.000124102
*RES
1 *199:Y *20:10 41.0036 
2 *20:10 *20:16 18.8114 
3 *20:16 *205:A2 26.5007 
4 *20:16 *204:B 27.5986 
5 *20:10 *209:A2 38 
*END

*D_NET *21 0.00173182
*CONN
*I *208:A2 I *D sky130_fd_sc_hd__o211a_1
*I *225:A2 I *D sky130_fd_sc_hd__a211o_1
*I *200:Y O *D sky130_fd_sc_hd__inv_2
*CAP
1 *208:A2 0
2 *225:A2 0
3 *200:Y 0.000150502
4 *21:16 0.000252149
5 *21:8 0.000402651
6 *21:8 *200:A 5.50049e-05
7 *21:8 *208:C1 1.37232e-05
8 *21:8 *70:22 0.000147474
9 *21:8 *82:34 8.83944e-05
10 *21:16 *25:12 6.07611e-06
11 *21:16 *70:31 4.23817e-05
12 *21:16 *70:75 7.91102e-05
13 *21:16 *78:33 0
14 *21:16 *81:30 0.0002499
15 *21:16 *81:36 0.000191148
16 *225:A1 *21:16 5.3304e-05
*RES
1 *200:Y *21:8 26.5007 
2 *21:8 *21:16 36.4007 
3 *21:16 *225:A2 23 
4 *21:8 *208:A2 23 
*END

*D_NET *22 0.00067383
*CONN
*I *217:A I *D sky130_fd_sc_hd__or4b_1
*I *201:Y O *D sky130_fd_sc_hd__inv_2
*CAP
1 *217:A 6.3987e-05
2 *201:Y 0.000113825
3 *22:8 0.000177812
4 *217:A *218:B 0.000102389
5 *217:A *34:8 5.56356e-05
6 *22:8 *29:25 0.000160182
*RES
1 *201:Y *22:8 40.2579 
2 *22:8 *217:A 39.5743 
*END

*D_NET *23 0.000933455
*CONN
*I *237:A1 I *D sky130_fd_sc_hd__a211o_1
*I *202:Y O *D sky130_fd_sc_hd__inv_2
*CAP
1 *237:A1 0
2 *202:Y 0.000382364
3 *23:10 0.000382364
4 *23:10 *203:A 8.15864e-05
5 *23:10 *237:A2 7.65977e-05
6 *23:10 *24:8 4.46742e-06
7 *23:10 *52:39 6.07611e-06
8 *23:10 *84:14 0
*RES
1 *202:Y *23:10 43.7379 
2 *23:10 *237:A1 38 
*END

*D_NET *24 0.00258415
*CONN
*I *237:A2 I *D sky130_fd_sc_hd__a211o_1
*I *217:B I *D sky130_fd_sc_hd__or4b_1
*I *222:A1 I *D sky130_fd_sc_hd__a211oi_2
*I *203:Y O *D sky130_fd_sc_hd__inv_2
*CAP
1 *237:A2 0.000291149
2 *217:B 4.99221e-05
3 *222:A1 0.000209077
4 *203:Y 5.30077e-05
5 *24:10 0.0004533
6 *24:8 0.000538457
7 *217:B *31:8 5.3304e-05
8 *222:A1 *29:25 0.000352547
9 *222:A1 *40:10 5.40241e-05
10 *222:A1 *78:74 0
11 *222:A1 *83:42 0.000216415
12 *237:A2 *35:8 0
13 *237:A2 *54:6 4.96303e-05
14 *237:A2 *58:6 9.8203e-05
15 *237:A2 *84:14 0
16 *237:A2 *84:16 0
17 *24:10 *29:25 8.4047e-05
18 *24:10 *35:8 0
19 *24:10 *78:74 0
20 *24:10 *84:16 0
21 *23:10 *237:A2 7.65977e-05
22 *23:10 *24:8 4.46742e-06
*RES
1 *203:Y *24:8 38.6214 
2 *24:8 *24:10 2.96214 
3 *24:10 *222:A1 43.8207 
4 *24:10 *217:B 38.6214 
5 *24:8 *237:A2 44.0279 
*END

*D_NET *25 0.000669167
*CONN
*I *208:B1 I *D sky130_fd_sc_hd__o211a_1
*I *205:X O *D sky130_fd_sc_hd__a31o_1
*CAP
1 *208:B1 1.80505e-05
2 *205:X 0.000196735
3 *25:12 0.000214785
4 *208:B1 *70:22 2.93747e-05
5 *208:B1 *82:34 5.50049e-05
6 *25:12 *205:A1 0
7 *25:12 *205:A3 0.000136477
8 *25:12 *81:36 1.26644e-05
9 *21:16 *25:12 6.07611e-06
*RES
1 *205:X *25:12 41.5007 
2 *25:12 *208:B1 38.6214 
*END

*D_NET *26 0.00274804
*CONN
*I *207:A I *D sky130_fd_sc_hd__inv_2
*I *223:A I *D sky130_fd_sc_hd__nand2_1
*I *226:A I *D sky130_fd_sc_hd__nor2_1
*I *206:X O *D sky130_fd_sc_hd__and4_1
*CAP
1 *207:A 0.000165772
2 *223:A 0.00010843
3 *226:A 0
4 *206:X 0.000399076
5 *26:12 0.000218733
6 *26:6 0.000675151
7 *207:A *208:C1 8.29443e-05
8 *207:A *27:8 0.000127213
9 *207:A *45:10 3.22879e-05
10 *223:A *210:A 0
11 *223:A *223:B 5.50106e-05
12 *223:A *30:10 9.45591e-05
13 *223:A *44:10 0.00014196
14 *26:6 *208:C1 0.000583068
15 *26:12 *210:B 2.24366e-06
16 *26:12 *212:B 0
17 *26:12 *227:B 6.15872e-05
18 *26:12 *29:25 0
*RES
1 *206:X *26:6 29.3386 
2 *26:6 *26:12 31.9057 
3 *26:12 *226:A 23 
4 *26:12 *223:A 26.5214 
5 *26:6 *207:A 26.9979 
*END

*D_NET *27 0.00317123
*CONN
*I *208:C1 I *D sky130_fd_sc_hd__o211a_1
*I *227:A I *D sky130_fd_sc_hd__xnor2_1
*I *207:Y O *D sky130_fd_sc_hd__inv_2
*CAP
1 *208:C1 0.000423952
2 *227:A 0
3 *207:Y 0.000167053
4 *27:8 0.000591005
5 *208:C1 *206:B 0.000129522
6 *208:C1 *206:C 0.000336814
7 *208:C1 *209:B1 4.00259e-06
8 *208:C1 *209:C1 5.50049e-05
9 *208:C1 *28:8 0.000190345
10 *208:C1 *70:12 0.000338282
11 *208:C1 *70:22 1.32314e-05
12 *208:C1 *78:16 5.38086e-05
13 *208:C1 *82:34 4.79641e-05
14 *27:8 *45:10 1.32939e-05
15 *207:A *208:C1 8.29443e-05
16 *207:A *27:8 0.000127213
17 *21:8 *208:C1 1.37232e-05
18 *26:6 *208:C1 0.000583068
*RES
1 *207:Y *27:8 26.8529 
2 *27:8 *227:A 23 
3 *27:8 *208:C1 37.9557 
*END

*D_NET *28 0.00261641
*CONN
*I *212:A I *D sky130_fd_sc_hd__xnor2_1
*I *211:C I *D sky130_fd_sc_hd__and3_1
*I *209:X O *D sky130_fd_sc_hd__o211a_1
*CAP
1 *212:A 0.00029776
2 *211:C 0.000258956
3 *209:X 0.000146546
4 *28:8 0.000703263
5 *211:C *210:A 3.23857e-06
6 *211:C *211:A 1.8788e-05
7 *211:C *212:B 7.29018e-05
8 *211:C *29:25 2.16891e-05
9 *211:C *30:10 1.79174e-05
10 *211:C *70:53 0.000105541
11 *211:C *78:16 0
12 *211:C *78:31 0
13 *212:A *212:B 0.000166964
14 *212:A *72:8 3.83382e-05
15 *28:8 *206:A 5.50106e-05
16 *28:8 *206:C 0.000185434
17 *28:8 *78:16 0.000321274
18 *204:A *212:A 0
19 *208:C1 *28:8 0.000190345
20 *258:A *212:A 1.24376e-05
*RES
1 *209:X *28:8 43.8621 
2 *28:8 *211:C 42.9611 
3 *28:8 *212:A 43.8932 
*END

*D_NET *29 0.00320973
*CONN
*I *213:C I *D sky130_fd_sc_hd__and3_1
*I *217:D_N I *D sky130_fd_sc_hd__or4b_1
*I *212:B I *D sky130_fd_sc_hd__xnor2_1
*I *210:Y O *D sky130_fd_sc_hd__nand2_1
*CAP
1 *213:C 9.30737e-05
2 *217:D_N 0
3 *212:B 0.000364368
4 *210:Y 0
5 *29:25 0.000513383
6 *29:6 0.000784677
7 *212:B *227:B 0
8 *212:B *72:8 3.08943e-05
9 *212:B *78:8 5.31444e-05
10 *213:C *34:8 6.39523e-05
11 *29:25 *210:B 9.20311e-06
12 *29:25 *34:8 5.3304e-05
13 *29:25 *70:68 0.000100625
14 *29:25 *78:100 0.000141879
15 *29:25 *83:42 0.000135457
16 *204:A *212:B 0
17 *211:C *212:B 7.29018e-05
18 *211:C *29:25 2.16891e-05
19 *212:A *212:B 0.000166964
20 *222:A1 *29:25 0.000352547
21 *258:A *212:B 7.44161e-06
22 *22:8 *29:25 0.000160182
23 *24:10 *29:25 8.4047e-05
24 *26:12 *212:B 0
25 *26:12 *29:25 0
*RES
1 *210:Y *29:6 38 
2 *29:6 *212:B 44.9186 
3 *29:6 *29:25 25.2743 
4 *29:25 *217:D_N 23 
5 *29:25 *213:C 24.9057 
*END

*D_NET *30 0.00320499
*CONN
*I *255:A I *D sky130_fd_sc_hd__nor2_1
*I *232:A I *D sky130_fd_sc_hd__and2_1
*I *233:A I *D sky130_fd_sc_hd__nand2_1
*I *211:X O *D sky130_fd_sc_hd__and3_1
*CAP
1 *255:A 3.71759e-05
2 *232:A 0
3 *233:A 0
4 *211:X 0.000862575
5 *30:18 0.000199339
6 *30:10 0.00109909
7 *255:A *255:B 9.84851e-05
8 *30:10 *210:B 0.000102389
9 *30:10 *223:B 5.50106e-05
10 *30:10 *255:B 2.86356e-05
11 *30:10 *44:10 3.53115e-05
12 *30:10 *49:10 0.000314136
13 *30:10 *49:23 8.6949e-05
14 *30:10 *70:53 2.32101e-05
15 *30:10 *70:68 3.74951e-05
16 *30:18 *49:16 8.33365e-05
17 *30:18 *50:42 0
18 *30:18 *51:10 2.93747e-05
19 *211:C *30:10 1.79174e-05
20 *223:A *30:10 9.45591e-05
*RES
1 *211:X *30:10 40.3379 
2 *30:10 *30:18 33.9357 
3 *30:18 *233:A 23 
4 *30:10 *232:A 23 
5 *30:10 *255:A 24.0979 
*END

*D_NET *31 0.00108196
*CONN
*I *218:A I *D sky130_fd_sc_hd__xor2_1
*I *213:X O *D sky130_fd_sc_hd__and3_1
*CAP
1 *218:A 0
2 *213:X 0.000291542
3 *31:8 0.000291542
4 *31:8 *218:B 0.000265012
5 *31:8 *34:8 0.000180559
6 *217:B *31:8 5.3304e-05
*RES
1 *213:X *31:8 29.235 
2 *31:8 *218:A 23 
*END

*D_NET *32 0.000461079
*CONN
*I *216:A0 I *D sky130_fd_sc_hd__mux2_1
*I *214:Y O *D sky130_fd_sc_hd__nand2_1
*CAP
1 *216:A0 0.000148912
2 *214:Y 0.000148912
3 *216:A0 *82:58 7.53384e-06
4 *216:A0 *82:67 9.90162e-05
5 *216:A0 *82:74 5.67058e-05
*RES
1 *214:Y *216:A0 48.5271 
*END

*D_NET *33 0.0029171
*CONN
*I *216:S I *D sky130_fd_sc_hd__mux2_1
*I *238:B I *D sky130_fd_sc_hd__and3_1
*I *239:A2 I *D sky130_fd_sc_hd__a21oi_1
*I *225:B1 I *D sky130_fd_sc_hd__a211o_1
*I *215:X O *D sky130_fd_sc_hd__and3_1
*CAP
1 *216:S 2.34823e-05
2 *238:B 0.00012656
3 *239:A2 0.000106771
4 *225:B1 0.000110496
5 *215:X 6.77665e-05
6 *33:27 0.000441963
7 *33:23 0.000370935
8 *33:8 0.000317083
9 *225:B1 *81:30 5.25997e-05
10 *225:B1 *82:58 0.00024897
11 *225:B1 *83:23 0
12 *238:B *34:8 4.5051e-05
13 *238:B *56:10 5.67058e-05
14 *239:A2 *238:C 0.000125931
15 *239:A2 *239:A1 4.45736e-05
16 *239:A2 *34:8 0.000305404
17 *239:A2 *82:67 0
18 *239:A2 *82:74 9.84794e-05
19 *33:8 *215:B 5.50106e-05
20 *33:8 *81:30 5.12328e-05
21 *33:23 *82:58 0.000135678
22 *33:23 *82:67 4.79641e-05
23 *33:23 *83:23 0
24 *33:27 *82:67 3.53115e-05
25 *33:27 *82:74 4.91297e-05
*RES
1 *215:X *33:8 39.5743 
2 *33:8 *225:B1 41.3143 
3 *33:8 *33:23 18.0036 
4 *33:23 *33:27 3.50071 
5 *33:27 *239:A2 27.6814 
6 *33:27 *238:B 25.0507 
7 *33:23 *216:S 23.4971 
*END

*D_NET *34 0.00253581
*CONN
*I *218:B I *D sky130_fd_sc_hd__xor2_1
*I *217:C I *D sky130_fd_sc_hd__or4b_1
*I *216:X O *D sky130_fd_sc_hd__mux2_1
*CAP
1 *218:B 7.25169e-05
2 *217:C 0
3 *216:X 0.000380496
4 *34:8 0.000453013
5 *34:8 *213:B 0.000121546
6 *34:8 *238:C 7.1349e-05
7 *34:8 *56:10 0.000311554
8 *34:8 *78:74 5.40337e-05
9 *213:C *34:8 6.39523e-05
10 *217:A *218:B 0.000102389
11 *217:A *34:8 5.56356e-05
12 *238:B *34:8 4.5051e-05
13 *239:A2 *34:8 0.000305404
14 *29:25 *34:8 5.3304e-05
15 *31:8 *218:B 0.000265012
16 *31:8 *34:8 0.000180559
*RES
1 *216:X *34:8 34.1236 
2 *34:8 *217:C 23 
3 *34:8 *218:B 26.0036 
*END

*D_NET *35 0.00104576
*CONN
*I *243:A I *D sky130_fd_sc_hd__xor2_1
*I *242:A I *D sky130_fd_sc_hd__nor2_1
*I *217:X O *D sky130_fd_sc_hd__or4b_1
*CAP
1 *243:A 0.0001517
2 *242:A 0
3 *217:X 0.000293419
4 *35:8 0.000445119
5 *243:A *243:B 5.70419e-05
6 *243:A *52:39 0
7 *243:A *59:8 9.84851e-05
8 *237:A2 *35:8 0
9 *24:10 *35:8 0
*RES
1 *217:X *35:8 43.075 
2 *35:8 *242:A 38 
3 *35:8 *243:A 41.3143 
*END

*D_NET *36 0.000883536
*CONN
*I *229:A_N I *D sky130_fd_sc_hd__and2b_1
*I *230:A I *D sky130_fd_sc_hd__xor2_1
*I *218:X O *D sky130_fd_sc_hd__xor2_1
*CAP
1 *229:A_N 0
2 *230:A 0
3 *218:X 0.000145038
4 *36:14 0.000197991
5 *36:6 0.000343029
6 *36:14 *229:B 0.00016046
7 *36:14 *46:10 3.70187e-05
8 *36:14 *50:10 0
*RES
1 *218:X *36:6 25.5271 
2 *36:6 *36:14 34.06 
3 *36:14 *230:A 23 
4 *36:6 *229:A_N 23 
*END

*D_NET *37 0.000555107
*CONN
*I *222:A2 I *D sky130_fd_sc_hd__a211oi_2
*I *219:Y O *D sky130_fd_sc_hd__nand3b_1
*CAP
1 *222:A2 0.000105823
2 *219:Y 0.000105823
3 *222:A2 *40:10 0.000270671
4 *222:A2 *78:100 7.27895e-05
*RES
1 *219:Y *222:A2 49.0036 
*END

*D_NET *38 0.00235214
*CONN
*I *222:B1 I *D sky130_fd_sc_hd__a211oi_2
*I *238:C I *D sky130_fd_sc_hd__and3_1
*I *239:B1 I *D sky130_fd_sc_hd__a21oi_1
*I *220:X O *D sky130_fd_sc_hd__and4_1
*CAP
1 *222:B1 0
2 *238:C 0.000103484
3 *239:B1 0
4 *220:X 0.000158219
5 *38:34 0.000228869
6 *38:12 0.000308113
7 *38:6 0.000591716
8 *238:C *239:A1 0.000169405
9 *38:6 *78:66 0.000226295
10 *38:12 *55:8 0
11 *38:12 *78:74 6.7177e-06
12 *38:12 *83:23 0
13 *38:12 *84:16 3.72639e-05
14 *38:12 *84:22 8.16356e-05
15 *38:12 *84:35 5.94125e-05
16 *38:34 *78:66 0.00014196
17 *38:34 *78:81 4.17736e-05
18 *38:34 *84:35 0
19 *239:A2 *238:C 0.000125931
20 *34:8 *238:C 7.1349e-05
*RES
1 *220:X *38:6 25.5271 
2 *38:6 *38:12 34.0186 
3 *38:12 *239:B1 23 
4 *38:12 *238:C 26.335 
5 *38:6 *38:34 33.9564 
6 *38:34 *222:B1 23 
*END

*D_NET *39 7.38572e-05
*CONN
*I *222:C1 I *D sky130_fd_sc_hd__a211oi_2
*I *221:X O *D sky130_fd_sc_hd__and2b_1
*CAP
1 *222:C1 2.07846e-05
2 *221:X 2.07846e-05
3 *222:C1 *43:10 3.22879e-05
*RES
1 *221:X *222:C1 46.6214 
*END

*D_NET *40 0.00252942
*CONN
*I *223:B I *D sky130_fd_sc_hd__nand2_1
*I *226:B I *D sky130_fd_sc_hd__nor2_1
*I *227:B I *D sky130_fd_sc_hd__xnor2_1
*I *222:Y O *D sky130_fd_sc_hd__a211oi_2
*CAP
1 *223:B 1.49804e-05
2 *226:B 0
3 *227:B 0.000238423
4 *222:Y 0.000384954
5 *40:21 1.49804e-05
6 *40:10 0.000623377
7 *227:B *45:10 0
8 *40:10 *41:8 5.21024e-05
9 *40:10 *43:10 0.000704301
10 *40:10 *44:10 0
11 *212:B *227:B 0
12 *222:A1 *40:10 5.40241e-05
13 *222:A2 *40:10 0.000270671
14 *223:A *223:B 5.50106e-05
15 *26:12 *227:B 6.15872e-05
16 *30:10 *223:B 5.50106e-05
*RES
1 *222:Y *40:10 48.3779 
2 *40:10 *227:B 40.9621 
3 *40:10 *40:21 15 
4 *40:21 *226:B 23 
5 *40:21 *223:B 23.6214 
*END

*D_NET *41 0.00043629
*CONN
*I *228:B1 I *D sky130_fd_sc_hd__o21ai_1
*I *223:Y O *D sky130_fd_sc_hd__nand2_1
*CAP
1 *228:B1 2.95011e-05
2 *223:Y 0.000121137
3 *41:8 0.000150638
4 *228:B1 *43:10 5.50106e-05
5 *41:8 *43:23 0
6 *41:8 *44:10 2.79004e-05
7 *40:10 *41:8 5.21024e-05
*RES
1 *223:Y *41:8 39.9057 
2 *41:8 *228:B1 38.6214 
*END

*D_NET *42 0.00023158
*CONN
*I *225:C1 I *D sky130_fd_sc_hd__a211o_1
*I *224:Y O *D sky130_fd_sc_hd__a21oi_1
*CAP
1 *225:C1 9.27847e-05
2 *224:Y 9.27847e-05
3 *225:C1 *224:A2 0
4 *225:C1 *224:B1 3.22879e-05
5 *225:A1 *225:C1 1.37232e-05
*RES
1 *224:Y *225:C1 48.0921 
*END

*D_NET *43 0.00412405
*CONN
*I *231:A I *D sky130_fd_sc_hd__xnor2_1
*I *228:A1 I *D sky130_fd_sc_hd__o21ai_1
*I *225:X O *D sky130_fd_sc_hd__a211o_1
*CAP
1 *231:A 0
2 *228:A1 0
3 *225:X 0.00125759
4 *43:23 0.000202014
5 *43:10 0.0014596
6 *43:10 *221:A_N 3.34247e-05
7 *43:10 *46:10 8.1796e-05
8 *43:23 *44:10 3.5664e-05
9 *43:23 *45:10 3.92407e-05
10 *43:23 *46:10 5.41288e-05
11 *43:23 *50:10 0
12 *222:C1 *43:10 3.22879e-05
13 *225:A1 *43:10 0.000168985
14 *228:B1 *43:10 5.50106e-05
15 *40:10 *43:10 0.000704301
16 *41:8 *43:23 0
*RES
1 *225:X *43:10 42.5957 
2 *43:10 *228:A1 23 
3 *43:10 *43:23 34.4121 
4 *43:23 *231:A 23 
*END

*D_NET *44 0.000608428
*CONN
*I *228:A2 I *D sky130_fd_sc_hd__o21ai_1
*I *226:Y O *D sky130_fd_sc_hd__nor2_1
*CAP
1 *228:A2 0
2 *226:Y 0.000183796
3 *44:10 0.000183796
4 *223:A *44:10 0.00014196
5 *30:10 *44:10 3.53115e-05
6 *40:10 *44:10 0
7 *41:8 *44:10 2.79004e-05
8 *43:23 *44:10 3.5664e-05
*RES
1 *226:Y *44:10 42.0807 
2 *44:10 *228:A2 38 
*END

*D_NET *45 0.000650711
*CONN
*I *231:B I *D sky130_fd_sc_hd__xnor2_1
*I *227:Y O *D sky130_fd_sc_hd__xnor2_1
*CAP
1 *231:B 0
2 *227:Y 0.000282944
3 *45:10 0.000282944
4 *207:A *45:10 3.22879e-05
5 *227:B *45:10 0
6 *27:8 *45:10 1.32939e-05
7 *43:23 *45:10 3.92407e-05
*RES
1 *227:Y *45:10 42.3086 
2 *45:10 *231:B 38 
*END

*D_NET *46 0.00144028
*CONN
*I *229:B I *D sky130_fd_sc_hd__and2b_1
*I *230:B I *D sky130_fd_sc_hd__xor2_1
*I *228:Y O *D sky130_fd_sc_hd__o21ai_1
*CAP
1 *229:B 0.000156821
2 *230:B 0
3 *228:Y 0.000396617
4 *46:10 0.000553438
5 *229:B *50:10 0
6 *46:10 *50:10 0
7 *36:14 *229:B 0.00016046
8 *36:14 *46:10 3.70187e-05
9 *43:10 *46:10 8.1796e-05
10 *43:23 *46:10 5.41288e-05
*RES
1 *228:Y *46:10 44.2143 
2 *46:10 *230:B 38 
3 *46:10 *229:B 41.3557 
*END

*D_NET *47 0.00120761
*CONN
*I *244:B1_N I *D sky130_fd_sc_hd__o21ba_1
*I *247:A1 I *D sky130_fd_sc_hd__a221o_1
*I *229:X O *D sky130_fd_sc_hd__and2b_1
*CAP
1 *244:B1_N 0.000164418
2 *247:A1 0
3 *229:X 0
4 *47:10 0.000221806
5 *47:4 0.000386224
6 *244:B1_N *234:B 0.000185434
7 *244:B1_N *61:10 5.70419e-05
8 *47:10 *247:B2 0.000192681
*RES
1 *229:X *47:4 23 
2 *47:4 *47:10 35.075 
3 *47:10 *247:A1 23 
4 *47:4 *244:B1_N 26.9979 
*END

*D_NET *48 0.00133517
*CONN
*I *234:A I *D sky130_fd_sc_hd__xnor2_1
*I *244:A1 I *D sky130_fd_sc_hd__o21ba_1
*I *230:X O *D sky130_fd_sc_hd__xor2_1
*CAP
1 *234:A 7.12836e-05
2 *244:A1 0
3 *230:X 0.000506242
4 *48:12 7.12836e-05
5 *48:10 0.000506242
6 *234:A *234:B 9.84851e-05
7 *48:10 *51:10 8.16356e-05
8 *48:10 *74:10 0
*RES
1 *230:X *48:10 45.1671 
2 *48:10 *48:12 15 
3 *48:12 *244:A1 23 
4 *48:12 *234:A 24.5743 
*END

*D_NET *49 0.00172363
*CONN
*I *255:B I *D sky130_fd_sc_hd__nor2_1
*I *232:B I *D sky130_fd_sc_hd__and2_1
*I *233:B I *D sky130_fd_sc_hd__nand2_1
*I *231:Y O *D sky130_fd_sc_hd__xnor2_1
*CAP
1 *255:B 9.73047e-05
2 *232:B 0
3 *233:B 0
4 *231:Y 0.000175429
5 *49:23 0.000118819
6 *49:16 0.000146275
7 *49:10 0.000343218
8 *255:B *50:42 0.000126847
9 *49:10 *50:10 7.24365e-05
10 *49:16 *50:10 0
11 *49:23 *50:10 3.7122e-06
12 *49:23 *50:42 2.80512e-05
13 *255:A *255:B 9.84851e-05
14 *30:10 *255:B 2.86356e-05
15 *30:10 *49:10 0.000314136
16 *30:10 *49:23 8.6949e-05
17 *30:18 *49:16 8.33365e-05
*RES
1 *231:Y *49:10 28.4271 
2 *49:10 *49:16 33.3143 
3 *49:16 *233:B 23 
4 *49:10 *49:23 1.09786 
5 *49:23 *232:B 23 
6 *49:23 *255:B 26.5214 
*END

*D_NET *50 0.00461181
*CONN
*I *256:A I *D sky130_fd_sc_hd__nor2_1
*I *247:B2 I *D sky130_fd_sc_hd__a221o_1
*I *234:B I *D sky130_fd_sc_hd__xnor2_1
*I *232:X O *D sky130_fd_sc_hd__and2_1
*CAP
1 *256:A 0
2 *247:B2 0.00052402
3 *234:B 0.000262541
4 *232:X 0
5 *50:42 0.000423092
6 *50:10 0.00135409
7 *50:4 0.000990623
8 *247:B2 *247:A2 1.69977e-05
9 *247:B2 *59:8 2.02517e-05
10 *247:B2 *60:8 8.1218e-05
11 *247:B2 *61:10 0
12 *247:B2 *62:25 1.19692e-05
13 *247:B2 *63:10 4.6318e-06
14 *50:10 *51:10 0
15 *50:42 *69:8 7.28526e-05
16 *50:42 *73:10 0.000141879
17 *229:B *50:10 0
18 *234:A *234:B 9.84851e-05
19 *244:B1_N *234:B 0.000185434
20 *255:B *50:42 0.000126847
21 *30:18 *50:42 0
22 *36:14 *50:10 0
23 *43:23 *50:10 0
24 *46:10 *50:10 0
25 *47:10 *247:B2 0.000192681
26 *49:10 *50:10 7.24365e-05
27 *49:16 *50:10 0
28 *49:23 *50:10 3.7122e-06
29 *49:23 *50:42 2.80512e-05
*RES
1 *232:X *50:4 23 
2 *50:4 *50:10 24.5907 
3 *50:10 *234:B 43.3857 
4 *50:10 *247:B2 48.0671 
5 *50:4 *50:42 37.6229 
6 *50:42 *256:A 23 
*END

*D_NET *51 0.000735679
*CONN
*I *244:A2 I *D sky130_fd_sc_hd__o21ba_1
*I *233:Y O *D sky130_fd_sc_hd__nand2_1
*CAP
1 *244:A2 0
2 *233:Y 0.000312335
3 *51:10 0.000312335
4 *51:10 *74:10 0
5 *30:18 *51:10 2.93747e-05
6 *48:10 *51:10 8.16356e-05
7 *50:10 *51:10 0
*RES
1 *233:Y *51:10 43.6964 
2 *51:10 *244:A2 38 
*END

*D_NET *52 0.00378071
*CONN
*I *249:A2 I *D sky130_fd_sc_hd__a21o_1
*I *248:A I *D sky130_fd_sc_hd__nor2_1
*I *237:B1 I *D sky130_fd_sc_hd__a211o_1
*I *253:B2 I *D sky130_fd_sc_hd__a2bb2o_1
*I *235:X O *D sky130_fd_sc_hd__and3_1
*CAP
1 *249:A2 0
2 *248:A 2.56476e-05
3 *237:B1 0
4 *253:B2 0
5 *235:X 0.000550326
6 *52:39 0.000239599
7 *52:29 0.00036869
8 *52:20 0.000128943
9 *52:14 0.000304052
10 *52:10 0.000621992
11 *248:A *249:B1 0.000113624
12 *248:A *65:10 5.79559e-05
13 *52:10 *250:A1 0.000274078
14 *52:10 *53:16 0.000101137
15 *52:10 *80:71 0
16 *52:10 *84:12 0
17 *52:14 *246:A 0.000125488
18 *52:14 *249:A1 2.18506e-05
19 *52:14 *62:12 0.000268074
20 *52:20 *66:18 0.000166488
21 *52:20 *84:12 0.000164282
22 *52:29 *249:A1 5.73309e-05
23 *52:29 *249:B1 2.86932e-05
24 *52:29 *62:12 5.63189e-05
25 *52:39 *65:10 0.000100061
26 *52:39 *84:14 0
27 *243:A *52:39 0
28 *23:10 *52:39 6.07611e-06
*RES
1 *235:X *52:10 46.7207 
2 *52:10 *52:14 18.0036 
3 *52:14 *52:20 32.9621 
4 *52:20 *253:B2 23 
5 *52:14 *52:29 2.54786 
6 *52:29 *52:39 33.9771 
7 *52:39 *237:B1 23 
8 *52:29 *248:A 24.595 
9 *52:14 *249:A2 23 
*END

*D_NET *53 0.00298224
*CONN
*I *237:C1 I *D sky130_fd_sc_hd__a211o_1
*I *236:Y O *D sky130_fd_sc_hd__a21oi_1
*CAP
1 *237:C1 0
2 *236:Y 8.31705e-05
3 *53:16 0.000685623
4 *53:8 0.000768794
5 *53:8 *235:C 0
6 *53:8 *80:10 2.79004e-05
7 *53:16 *241:A 1.12349e-05
8 *53:16 *241:B 0.000269781
9 *53:16 *250:A1 0.000109646
10 *53:16 *54:6 0.00020232
11 *53:16 *58:6 3.22051e-05
12 *53:16 *80:6 9.84794e-05
13 *53:16 *80:58 9.5877e-05
14 *53:16 *80:71 0.000356724
15 *53:16 *83:94 0.000139352
16 *52:10 *53:16 0.000101137
*RES
1 *236:Y *53:8 39.5536 
2 *53:8 *53:16 31.8614 
3 *53:16 *237:C1 23 
*END

*D_NET *54 0.00205242
*CONN
*I *241:A I *D sky130_fd_sc_hd__xnor2_1
*I *250:A1 I *D sky130_fd_sc_hd__o21ba_1
*I *237:X O *D sky130_fd_sc_hd__a211o_1
*CAP
1 *241:A 2.07933e-05
2 *250:A1 0.000167877
3 *237:X 0.000246854
4 *54:6 0.000435525
5 *250:A1 *241:B 0.000148698
6 *250:A1 *66:18 0.000272101
7 *54:6 *58:6 5.57011e-05
8 *54:6 *66:18 5.79559e-05
9 *237:A2 *54:6 4.96303e-05
10 *52:10 *250:A1 0.000274078
11 *53:16 *241:A 1.12349e-05
12 *53:16 *250:A1 0.000109646
13 *53:16 *54:6 0.00020232
*RES
1 *237:X *54:6 28.3857 
2 *54:6 *250:A1 29.8357 
3 *54:6 *241:A 23.4971 
*END

*D_NET *55 0.00108864
*CONN
*I *250:B1_N I *D sky130_fd_sc_hd__o21ba_1
*I *240:A I *D sky130_fd_sc_hd__or2_1
*I *238:X O *D sky130_fd_sc_hd__and3_1
*CAP
1 *250:B1_N 0.000132409
2 *240:A 2.95294e-05
3 *238:X 0.000205099
4 *55:8 0.000367037
5 *240:A *202:A 5.50049e-05
6 *250:B1_N *250:A2 7.80954e-05
7 *250:B1_N *57:8 0.000140958
8 *250:B1_N *84:14 0
9 *55:8 *250:A2 1.44546e-05
10 *55:8 *56:10 6.60558e-05
11 *55:8 *83:23 0
12 *55:8 *84:16 0
13 *38:12 *55:8 0
*RES
1 *238:X *55:8 41.6664 
2 *55:8 *240:A 38.6214 
3 *55:8 *250:B1_N 41.3143 
*END

*D_NET *56 0.00158909
*CONN
*I *250:A2 I *D sky130_fd_sc_hd__o21ba_1
*I *240:B I *D sky130_fd_sc_hd__or2_1
*I *239:Y O *D sky130_fd_sc_hd__a21oi_1
*CAP
1 *250:A2 0.000149242
2 *240:B 0
3 *239:Y 0.000247765
4 *56:10 0.000397007