*SPEF "ieee 1481-1999"
*DESIGN "SARSA_WInd_e8"
*DATE "14:00:06 Tuesday September 16, 2025"
*VENDOR "The OpenROAD Project"
*PROGRAM "OpenROAD"
*VERSION "edf00dff99f6c40d67a30c0e22a8191c5d2ed9d6"
*DESIGN_FLOW "NAME_SCOPE LOCAL" "PIN_CAP NONE"
*DIVIDER /
*DELIMITER :
*BUS_DELIMITER []
*T_UNIT 1 NS
*C_UNIT 1 PF
*R_UNIT 1 OHM
*L_UNIT 1 HENRY

*NAME_MAP
*1 A[0]
*2 A[1]
*3 B[0]
*4 B[1]
*5 P[0]
*6 P[1]
*7 P[2]
*8 net8
*11 net1
*12 net2
*13 net3
*14 net4
*15 net5
*16 net6
*17 net7
*18 pp0
*19 FILLER_0_15
*20 FILLER_0_27
*21 FILLER_0_29
*22 FILLER_0_3
*23 FILLER_0_41
*24 FILLER_0_53
*25 FILLER_0_57
*26 FILLER_0_69
*27 FILLER_1_15
*28 FILLER_1_27
*29 FILLER_1_3
*30 FILLER_1_39
*31 FILLER_1_51
*32 FILLER_1_55
*33 FILLER_1_57
*34 FILLER_1_69
*35 FILLER_2_18
*36 FILLER_2_26
*37 FILLER_2_29
*38 FILLER_2_41
*39 FILLER_2_53
*40 FILLER_2_6
*41 FILLER_2_65
*42 FILLER_2_77
*43 FILLER_3_11
*44 FILLER_3_17
*45 FILLER_3_25
*46 FILLER_3_3
*47 FILLER_3_31
*48 FILLER_3_43
*49 FILLER_3_55
*50 FILLER_3_57
*51 FILLER_3_69
*52 FILLER_4_10
*53 FILLER_4_18
*54 FILLER_4_26
*55 FILLER_4_29
*56 FILLER_4_41
*57 FILLER_4_53
*58 FILLER_4_6
*59 FILLER_4_65
*60 FILLER_5_17
*61 FILLER_5_29
*62 FILLER_5_41
*63 FILLER_5_53
*64 FILLER_5_57
*65 FILLER_5_6
*66 FILLER_5_69
*67 FILLER_6_19
*68 FILLER_6_27
*69 FILLER_6_29
*70 FILLER_6_41
*71 FILLER_6_53
*72 FILLER_6_65
*73 FILLER_6_7
*74 FILLER_6_77
*75 FILLER_7_18
*76 FILLER_7_30
*77 FILLER_7_42
*78 FILLER_7_54
*79 FILLER_7_57
*80 FILLER_7_6
*81 FILLER_7_69
*82 FILLER_8_15
*83 FILLER_8_27
*84 FILLER_8_29
*85 FILLER_8_3
*86 FILLER_8_41
*87 FILLER_8_53
*88 FILLER_8_65
*89 FILLER_8_77
*90 FILLER_9_15
*91 FILLER_9_27
*92 FILLER_9_29
*93 FILLER_9_3
*94 FILLER_9_41
*95 FILLER_9_53
*96 FILLER_9_57
*97 FILLER_9_69
*98 PHY_EDGE_ROW_0_Left_10
*99 PHY_EDGE_ROW_0_Right_0
*100 PHY_EDGE_ROW_1_Left_11
*101 PHY_EDGE_ROW_1_Right_1
*102 PHY_EDGE_ROW_2_Left_12
*103 PHY_EDGE_ROW_2_Right_2
*104 PHY_EDGE_ROW_3_Left_13
*105 PHY_EDGE_ROW_3_Right_3
*106 PHY_EDGE_ROW_4_Left_14
*107 PHY_EDGE_ROW_4_Right_4
*108 PHY_EDGE_ROW_5_Left_15
*109 PHY_EDGE_ROW_5_Right_5
*110 PHY_EDGE_ROW_6_Left_16
*111 PHY_EDGE_ROW_6_Right_6
*112 PHY_EDGE_ROW_7_Left_17
*113 PHY_EDGE_ROW_7_Right_7
*114 PHY_EDGE_ROW_8_Left_18
*115 PHY_EDGE_ROW_8_Right_8
*116 PHY_EDGE_ROW_9_Left_19
*117 PHY_EDGE_ROW_9_Right_9
*118 SARSA_WInd_e8_8
*119 TAP_TAPCELL_ROW_0_20
*120 TAP_TAPCELL_ROW_0_21
*121 TAP_TAPCELL_ROW_1_22
*122 TAP_TAPCELL_ROW_2_23
*123 TAP_TAPCELL_ROW_3_24
*124 TAP_TAPCELL_ROW_4_25
*125 TAP_TAPCELL_ROW_5_26
*126 TAP_TAPCELL_ROW_6_27
*127 TAP_TAPCELL_ROW_7_28
*128 TAP_TAPCELL_ROW_8_29
*129 TAP_TAPCELL_ROW_9_30
*130 TAP_TAPCELL_ROW_9_31
*131 _0_
*132 _1_
*133 _2_
*134 _4_
*135 input1
*136 input2
*137 input3
*138 input4
*139 output5
*140 output6
*141 output7

*PORTS
A[0] I
A[1] I
B[0] I
B[1] I
P[0] O
P[1] O
P[2] O
P[3] O

*D_NET *1 0.000666589
*CONN
*P A[0] I
*I *135:A I *D sky130_fd_sc_hd__clkbuf_1
*CAP
1 A[0] 0.000320228
2 *135:A 0
3 *1:17 0.000320228
4 *1:17 *2:17 2.61329e-05
*RES
1 A[0] *1:17 27.1584 
2 *1:17 *135:A 23 
*END

*D_NET *2 0.000747356
*CONN
*P A[1] I
*I *136:A I *D sky130_fd_sc_hd__clkbuf_1
*CAP
1 A[1] 0.000346167
2 *136:A 0
3 *2:17 0.000346167
4 *2:17 *4:17 2.88889e-05
5 *1:17 *2:17 2.61329e-05
*RES
1 A[1] *2:17 28.2148 
2 *2:17 *136:A 23 
*END

*D_NET *3 0.000616196
*CONN
*P B[0] I
*I *137:A I *D sky130_fd_sc_hd__clkbuf_1
*CAP
1 B[0] 0.000297475
2 *137:A 0.000297475
3 *137:A P[2] 2.12457e-05
*RES
1 B[0] *137:A 49.8062 
*END

*D_NET *4 0.00071699
*CONN
*P B[1] I
*I *138:A I *D sky130_fd_sc_hd__clkbuf_1
*CAP
1 B[1] 0.000330094
2 *138:A 0
3 *4:17 0.000330094
4 *4:17 P[2] 2.79122e-05
5 *2:17 *4:17 2.88889e-05
*RES
1 B[1] *4:17 27.8627 
2 *4:17 *138:A 23 
*END

*D_NET *5 0.000687039
*CONN
*P P[0] O
*I *139:X O *D sky130_fd_sc_hd__buf_2
*CAP
1 P[0] 0.000267094
2 *139:X 0.000267094
3 P[0] P[1] 8.73764e-05
4 P[0] *15:12 6.54744e-05
*RES
1 *139:X P[0] 48.5734 
*END

*D_NET *6 0.000615035
*CONN
*P P[1] O
*I *140:X O *D sky130_fd_sc_hd__buf_2
*CAP
1 P[1] 0.000223522
2 *140:X 0.000223522
3 P[1] P[3] 8.06147e-05
4 P[0] P[1] 8.73764e-05
*RES
1 *140:X P[1] 47.8691 
*END

*D_NET *7 0.000557539
*CONN
*P P[2] O
*I *141:X O *D sky130_fd_sc_hd__buf_2
*CAP
1 P[2] 0.000249258
2 *141:X 0.000249258
3 P[2] *17:10 9.86551e-06
4 *137:A P[2] 2.12457e-05
5 *4:17 P[2] 2.79122e-05
*RES
1 *141:X P[2] 47.1648 
*END

*D_NET *8 0.00052467
*CONN
*P P[3] O
*I *118:LO O *D sky130_fd_sc_hd__conb_1
*CAP
1 P[3] 0.000222028
2 *118:LO 0.000222028
3 P[1] P[3] 8.06147e-05
*RES
1 *118:LO P[3] 47.7832 
*END

*D_NET *11 0.000799398
*CONN
*I *133:B I *D sky130_fd_sc_hd__and2_1
*I *135:X O *D sky130_fd_sc_hd__clkbuf_1
*CAP
1 *133:B 0.000245965
2 *135:X 0.000126229
3 *11:8 0.000372194
4 *133:B *133:A 5.50106e-05
5 *11:8 *133:A 0
*RES
1 *135:X *11:8 40.2579 
2 *11:8 *133:B 42.4329 
*END

*D_NET *12 0.00117581
*CONN
*I *131:A I *D sky130_fd_sc_hd__and2_1
*I *132:A I *D sky130_fd_sc_hd__xor2_1
*I *136:X O *D sky130_fd_sc_hd__clkbuf_1
*CAP
1 *131:A 0.000169895
2 *132:A 3.09478e-05
3 *136:X 0.000253906
4 *12:8 0.000454748
5 *131:A *131:B 5.50106e-05
6 *131:A *14:14 0.00015954
7 *131:A *16:8 0
8 *132:A *133:A 1.47563e-05
9 *132:A *14:14 3.70094e-05
*RES
1 *136:X *12:8 41.9564 
2 *12:8 *132:A 38.8493 
3 *12:8 *131:A 41.8321 
*END

*D_NET *13 0.00189943
*CONN
*I *133:A I *D sky130_fd_sc_hd__and2_1
*I *137:X O *D sky130_fd_sc_hd__clkbuf_1
*CAP
1 *133:A 0.000571331
2 *137:X 0.000232445
3 *13:8 0.000803776
4 *133:A *14:14 0.000222113
5 *133:A *17:10 0
6 *132:A *133:A 1.47563e-05
7 *133:B *133:A 5.50106e-05
8 *11:8 *133:A 0
*RES
1 *137:X *13:8 41.0036 
2 *13:8 *133:A 49.3307 
*END

*D_NET *14 0.00126784
*CONN
*I *131:B I *D sky130_fd_sc_hd__and2_1
*I *132:B I *D sky130_fd_sc_hd__xor2_1
*I *138:X O *D sky130_fd_sc_hd__clkbuf_1
*CAP
1 *131:B 5.40222e-05
2 *132:B 0
3 *138:X 0.00019203
4 *14:14 7.36071e-05
5 *14:8 0.000319659
6 *131:B *17:10 6.17437e-06
7 *14:8 *17:10 0.000148678
8 *14:14 *16:8 0
9 *131:A *131:B 5.50106e-05
10 *131:A *14:14 0.00015954
11 *132:A *14:14 3.70094e-05
12 *133:A *14:14 0.000222113
*RES
1 *138:X *14:8 27.3293 
2 *14:8 *14:14 32.9621 
3 *14:14 *132:B 23 
4 *14:8 *131:B 24.0979 
*END

*D_NET *15 0.00306027
*CONN
*I *139:A I *D sky130_fd_sc_hd__buf_2
*I *134:X O *D sky130_fd_sc_hd__clkbuf_1
*CAP
1 *139:A 0
2 *134:X 0.00134759
3 *15:12 0.000149813
4 *15:6 0.0014974
5 P[0] *15:12 6.54744e-05
*RES
1 *134:X *15:6 45.5371 
2 *15:6 *15:12 33.3143 
3 *15:12 *139:A 23 
*END

*D_NET *16 0.00344032
*CONN
*I *140:A I *D sky130_fd_sc_hd__buf_2
*I *132:X O *D sky130_fd_sc_hd__xor2_1
*CAP
1 *140:A 0
2 *132:X 0.000129797
3 *16:12 0.00159036
4 *16:8 0.00172016
5 *131:A *16:8 0
6 *14:14 *16:8 0
*RES
1 *132:X *16:8 40.2579 
2 *16:8 *16:12 43.7307 
3 *16:12 *140:A 23 
*END

*D_NET *17 0.000791615
*CONN
*I *141:A I *D sky130_fd_sc_hd__buf_2
*I *131:X O *D sky130_fd_sc_hd__and2_1
*CAP
1 *141:A 0
2 *131:X 0.000313448
3 *17:10 0.000313448
4 P[2] *17:10 9.86551e-06
5 *131:B *17:10 6.17437e-06
6 *133:A *17:10 0
7 *14:8 *17:10 0.000148678
*RES
1 *131:X *17:10 42.9093 
2 *17:10 *141:A 38 
*END

*D_NET *18 0.000631132
*CONN
*I *134:A I *D sky130_fd_sc_hd__clkbuf_1
*I *133:X O *D sky130_fd_sc_hd__and2_1
*CAP
1 *134:A 0
2 *133:X 0.000315566
3 *18:6 0.000315566
*RES
1 *133:X *18:6 28.8621 
2 *18:6 *134:A 23 
*END
