*SPEF "ieee 1481-1999"
*DESIGN "mult8_2bits_2op_e2497"
*DATE "12:42:21 Wednesday September 17, 2025"
*VENDOR "The OpenROAD Project"
*PROGRAM "OpenROAD"
*VERSION "edf00dff99f6c40d67a30c0e22a8191c5d2ed9d6"
*DESIGN_FLOW "NAME_SCOPE LOCAL" "PIN_CAP NONE"
*DIVIDER /
*DELIMITER :
*BUS_DELIMITER []
*T_UNIT 1 NS
*C_UNIT 1 PF
*R_UNIT 1 OHM
*L_UNIT 1 HENRY

*NAME_MAP
*1 A[0]
*2 A[1]
*3 A[2]
*4 A[3]
*5 A[4]
*6 A[5]
*7 A[6]
*8 A[7]
*9 B[0]
*10 B[1]
*11 B[2]
*12 B[3]
*13 B[4]
*14 B[5]
*15 B[6]
*16 B[7]
*17 net52
*18 P[10]
*19 P[11]
*20 P[12]
*21 P[13]
*22 P[14]
*23 P[15]
*24 P[1]
*25 P[2]
*26 P[3]
*27 P[4]
*28 P[5]
*29 P[6]
*30 P[7]
*31 P[8]
*32 P[9]
*35 _000_
*36 _001_
*37 _002_
*38 _003_
*39 _004_
*40 _005_
*41 _006_
*42 _007_
*43 _008_
*44 _009_
*45 _010_
*46 _011_
*47 _012_
*48 _013_
*49 _014_
*50 _015_
*51 _016_
*52 _017_
*53 _018_
*54 _019_
*55 _020_
*56 _021_
*57 _022_
*58 _023_
*59 _024_
*60 _025_
*61 _026_
*62 _027_
*63 _028_
*64 _029_
*65 _030_
*66 _031_
*67 _032_
*68 _033_
*69 _034_
*70 _035_
*71 _036_
*72 _037_
*73 _038_
*74 _039_
*75 _040_
*76 _041_
*77 _042_
*78 _043_
*79 _044_
*80 _045_
*81 _046_
*82 _047_
*83 _048_
*84 _049_
*85 _050_
*86 _051_
*87 _052_
*88 _053_
*89 _054_
*90 _055_
*91 _056_
*92 _057_
*93 _058_
*94 _059_
*95 _060_
*96 _061_
*97 _062_
*98 _063_
*99 _064_
*100 _065_
*101 _066_
*102 _067_
*103 _068_
*104 _069_
*105 _070_
*106 _071_
*107 _072_
*108 _073_
*109 _074_
*110 _075_
*111 _076_
*112 _077_
*113 _078_
*114 _079_
*115 _080_
*116 _081_
*117 _082_
*118 _083_
*119 _084_
*120 _085_
*121 _086_
*122 _087_
*123 _088_
*124 _089_
*125 _090_
*126 _091_
*127 _092_
*128 _093_
*129 _094_
*130 _095_
*131 _096_
*132 _097_
*133 _098_
*134 _099_
*135 _100_
*136 _101_
*137 _102_
*138 _103_
*139 _104_
*140 _105_
*141 _106_
*142 _107_
*143 _108_
*144 _109_
*145 _110_
*146 _111_
*147 _112_
*148 _113_
*149 _114_
*150 _115_
*151 _116_
*152 _117_
*153 _118_
*154 _119_
*155 _120_
*156 _121_
*157 _122_
*158 _123_
*159 _124_
*160 _125_
*161 _126_
*162 _127_
*163 _128_
*164 _129_
*165 _130_
*166 _131_
*167 _132_
*168 _133_
*169 _134_
*170 _135_
*171 _136_
*172 _137_
*173 _138_
*174 _139_
*175 _140_
*176 _141_
*177 _142_
*178 _143_
*179 _144_
*180 _145_
*181 _146_
*182 _147_
*183 _148_
*184 _149_
*185 _150_
*186 _151_
*187 _152_
*188 _153_
*189 _154_
*190 _155_
*191 _156_
*192 _157_
*193 _158_
*194 _159_
*195 _160_
*196 _161_
*197 _162_
*198 _163_
*199 _164_
*200 _165_
*201 _166_
*202 _167_
*203 _168_
*204 _169_
*205 _170_
*206 _171_
*207 _172_
*208 _173_
*209 _174_
*210 _175_
*211 _176_
*212 _177_
*213 _178_
*214 _179_
*215 _180_
*216 _181_
*217 _182_
*218 _183_
*219 _184_
*220 _185_
*221 _186_
*222 _187_
*223 _188_
*224 _189_
*225 _190_
*226 _191_
*227 _192_
*228 _193_
*229 _194_
*230 _195_
*231 _196_
*232 _197_
*233 _198_
*234 _199_
*235 _200_
*236 _201_
*237 _202_
*238 _203_
*239 _204_
*240 _205_
*241 _206_
*242 _207_
*243 _208_
*244 _209_
*245 _210_
*246 _211_
*247 _212_
*248 _213_
*249 _214_
*250 _215_
*251 _216_
*252 _217_
*253 _218_
*254 _219_
*255 _220_
*256 _221_
*257 _222_
*258 _223_
*259 _224_
*260 _225_
*261 _226_
*262 _227_
*263 _228_
*264 _229_
*265 _230_
*266 _231_
*267 _232_
*268 _233_
*269 _234_
*270 _235_
*271 _236_
*272 _237_
*273 _238_
*274 _239_
*275 _240_
*276 _241_
*277 _242_
*278 _243_
*279 _244_
*280 _245_
*281 _246_
*282 _247_
*283 _248_
*284 _249_
*285 _250_
*286 _251_
*287 _252_
*288 _253_
*289 _254_
*290 _255_
*291 _256_
*292 _257_
*293 _258_
*294 _259_
*295 _260_
*296 _261_
*297 _262_
*298 _263_
*299 _264_
*300 _265_
*301 _266_
*302 _267_
*303 _268_
*304 _269_
*305 _270_
*306 net1
*307 net10
*308 net11
*309 net12
*310 net13
*311 net14
*312 net15
*313 net16
*314 net17
*315 net18
*316 net19
*317 net2
*318 net20
*319 net21
*320 net22
*321 net23
*322 net24
*323 net25
*324 net26
*325 net27
*326 net28
*327 net29
*328 net3
*329 net30
*330 net31
*331 net32
*332 net33
*333 net34
*334 net35
*335 net36
*336 net37
*337 net38
*338 net39
*339 net4
*340 net40
*341 net41
*342 net42
*343 net43
*344 net44
*345 net45
*346 net46
*347 net47
*348 net48
*349 net49
*350 net5
*351 net50
*352 net51
*353 net53
*354 net54
*355 net55
*356 net56
*357 net57
*358 net58
*359 net59
*360 net6
*361 net60
*362 net61
*363 net62
*364 net63
*365 net64
*366 net65
*367 net66
*368 net67
*369 net68
*370 net7
*371 net8
*372 net80
*373 net81
*374 net9
*375 FILLER_0_104
*376 FILLER_0_113
*377 FILLER_0_125
*378 FILLER_0_133
*379 FILLER_0_139
*380 FILLER_0_141
*381 FILLER_0_15
*382 FILLER_0_153
*383 FILLER_0_165
*384 FILLER_0_169
*385 FILLER_0_181
*386 FILLER_0_193
*387 FILLER_0_207
*388 FILLER_0_219
*389 FILLER_0_223
*390 FILLER_0_225
*391 FILLER_0_231
*392 FILLER_0_238
*393 FILLER_0_245
*394 FILLER_0_251
*395 FILLER_0_253
*396 FILLER_0_265
*397 FILLER_0_27
*398 FILLER_0_277
*399 FILLER_0_281
*400 FILLER_0_29
*401 FILLER_0_293
*402 FILLER_0_3
*403 FILLER_0_305
*404 FILLER_0_309
*405 FILLER_0_321
*406 FILLER_0_333
*407 FILLER_0_337
*408 FILLER_0_349
*409 FILLER_0_361
*410 FILLER_0_365
*411 FILLER_0_377
*412 FILLER_0_389
*413 FILLER_0_393
*414 FILLER_0_405
*415 FILLER_0_41
*416 FILLER_0_53
*417 FILLER_0_57
*418 FILLER_0_69
*419 FILLER_0_81
*420 FILLER_0_85
*421 FILLER_0_97
*422 FILLER_10_109
*423 FILLER_10_121
*424 FILLER_10_133
*425 FILLER_10_139
*426 FILLER_10_141
*427 FILLER_10_15
*428 FILLER_10_153
*429 FILLER_10_165
*430 FILLER_10_177
*431 FILLER_10_189
*432 FILLER_10_195
*433 FILLER_10_197
*434 FILLER_10_209
*435 FILLER_10_221
*436 FILLER_10_233
*437 FILLER_10_245
*438 FILLER_10_251
*439 FILLER_10_253
*440 FILLER_10_265
*441 FILLER_10_27
*442 FILLER_10_277
*443 FILLER_10_289
*444 FILLER_10_29
*445 FILLER_10_3
*446 FILLER_10_301
*447 FILLER_10_307
*448 FILLER_10_309
*449 FILLER_10_321
*450 FILLER_10_333
*451 FILLER_10_345
*452 FILLER_10_357
*453 FILLER_10_363
*454 FILLER_10_365
*455 FILLER_10_377
*456 FILLER_10_389
*457 FILLER_10_401
*458 FILLER_10_41
*459 FILLER_10_53
*460 FILLER_10_65
*461 FILLER_10_77
*462 FILLER_10_83
*463 FILLER_10_85
*464 FILLER_10_97
*465 FILLER_11_105
*466 FILLER_11_111
*467 FILLER_11_113
*468 FILLER_11_125
*469 FILLER_11_137
*470 FILLER_11_149
*471 FILLER_11_15
*472 FILLER_11_161
*473 FILLER_11_167
*474 FILLER_11_169
*475 FILLER_11_181
*476 FILLER_11_193
*477 FILLER_11_205
*478 FILLER_11_217
*479 FILLER_11_223
*480 FILLER_11_225
*481 FILLER_11_237
*482 FILLER_11_249
*483 FILLER_11_261
*484 FILLER_11_27
*485 FILLER_11_273
*486 FILLER_11_279
*487 FILLER_11_281
*488 FILLER_11_293
*489 FILLER_11_3
*490 FILLER_11_305
*491 FILLER_11_317
*492 FILLER_11_329
*493 FILLER_11_335
*494 FILLER_11_337
*495 FILLER_11_349
*496 FILLER_11_361
*497 FILLER_11_373
*498 FILLER_11_385
*499 FILLER_11_39
*500 FILLER_11_391
*501 FILLER_11_393
*502 FILLER_11_405
*503 FILLER_11_51
*504 FILLER_11_55
*505 FILLER_11_57
*506 FILLER_11_69
*507 FILLER_11_81
*508 FILLER_11_93
*509 FILLER_12_109
*510 FILLER_12_121
*511 FILLER_12_133
*512 FILLER_12_139
*513 FILLER_12_141
*514 FILLER_12_15
*515 FILLER_12_153
*516 FILLER_12_165
*517 FILLER_12_177
*518 FILLER_12_189
*519 FILLER_12_195
*520 FILLER_12_197
*521 FILLER_12_209
*522 FILLER_12_221
*523 FILLER_12_233
*524 FILLER_12_245
*525 FILLER_12_251
*526 FILLER_12_253
*527 FILLER_12_265
*528 FILLER_12_27
*529 FILLER_12_277
*530 FILLER_12_289
*531 FILLER_12_29
*532 FILLER_12_3
*533 FILLER_12_301
*534 FILLER_12_307
*535 FILLER_12_309
*536 FILLER_12_321
*537 FILLER_12_333
*538 FILLER_12_345
*539 FILLER_12_357
*540 FILLER_12_363
*541 FILLER_12_365
*542 FILLER_12_377
*543 FILLER_12_389
*544 FILLER_12_401
*545 FILLER_12_41
*546 FILLER_12_53
*547 FILLER_12_65
*548 FILLER_12_77
*549 FILLER_12_83
*550 FILLER_12_85
*551 FILLER_12_97
*552 FILLER_13_105
*553 FILLER_13_111
*554 FILLER_13_113
*555 FILLER_13_125
*556 FILLER_13_137
*557 FILLER_13_149
*558 FILLER_13_15
*559 FILLER_13_161
*560 FILLER_13_167
*561 FILLER_13_169
*562 FILLER_13_181
*563 FILLER_13_193
*564 FILLER_13_205
*565 FILLER_13_217
*566 FILLER_13_223
*567 FILLER_13_230
*568 FILLER_13_242
*569 FILLER_13_254
*570 FILLER_13_266
*571 FILLER_13_27
*572 FILLER_13_278
*573 FILLER_13_281
*574 FILLER_13_293
*575 FILLER_13_3
*576 FILLER_13_305
*577 FILLER_13_317
*578 FILLER_13_329
*579 FILLER_13_335
*580 FILLER_13_337
*581 FILLER_13_349
*582 FILLER_13_361
*583 FILLER_13_373
*584 FILLER_13_385
*585 FILLER_13_39
*586 FILLER_13_391
*587 FILLER_13_393
*588 FILLER_13_405
*589 FILLER_13_51
*590 FILLER_13_55
*591 FILLER_13_57
*592 FILLER_13_69
*593 FILLER_13_81
*594 FILLER_13_93
*595 FILLER_14_109
*596 FILLER_14_121
*597 FILLER_14_133
*598 FILLER_14_139
*599 FILLER_14_141
*600 FILLER_14_15
*601 FILLER_14_153
*602 FILLER_14_165
*603 FILLER_14_177
*604 FILLER_14_189
*605 FILLER_14_195
*606 FILLER_14_197
*607 FILLER_14_209
*608 FILLER_14_213
*609 FILLER_14_222
*610 FILLER_14_230
*611 FILLER_14_242
*612 FILLER_14_250
*613 FILLER_14_253
*614 FILLER_14_265
*615 FILLER_14_27
*616 FILLER_14_277
*617 FILLER_14_289
*618 FILLER_14_29
*619 FILLER_14_3
*620 FILLER_14_301
*621 FILLER_14_307
*622 FILLER_14_309
*623 FILLER_14_321
*624 FILLER_14_333
*625 FILLER_14_345
*626 FILLER_14_357
*627 FILLER_14_363
*628 FILLER_14_365
*629 FILLER_14_377
*630 FILLER_14_389
*631 FILLER_14_401
*632 FILLER_14_41
*633 FILLER_14_53
*634 FILLER_14_65
*635 FILLER_14_77
*636 FILLER_14_83
*637 FILLER_14_85
*638 FILLER_14_97
*639 FILLER_15_105
*640 FILLER_15_111
*641 FILLER_15_113
*642 FILLER_15_125
*643 FILLER_15_137
*644 FILLER_15_149
*645 FILLER_15_15
*646 FILLER_15_161
*647 FILLER_15_167
*648 FILLER_15_169
*649 FILLER_15_181
*650 FILLER_15_193
*651 FILLER_15_205
*652 FILLER_15_217
*653 FILLER_15_223
*654 FILLER_15_225
*655 FILLER_15_237
*656 FILLER_15_249
*657 FILLER_15_261
*658 FILLER_15_27
*659 FILLER_15_273
*660 FILLER_15_279
*661 FILLER_15_281
*662 FILLER_15_293
*663 FILLER_15_3
*664 FILLER_15_305
*665 FILLER_15_317
*666 FILLER_15_329
*667 FILLER_15_335
*668 FILLER_15_337
*669 FILLER_15_349
*670 FILLER_15_361
*671 FILLER_15_373
*672 FILLER_15_385
*673 FILLER_15_39
*674 FILLER_15_391
*675 FILLER_15_393
*676 FILLER_15_405
*677 FILLER_15_51
*678 FILLER_15_55
*679 FILLER_15_57
*680 FILLER_15_69
*681 FILLER_15_81
*682 FILLER_15_93
*683 FILLER_16_109
*684 FILLER_16_121
*685 FILLER_16_133
*686 FILLER_16_139
*687 FILLER_16_141
*688 FILLER_16_15
*689 FILLER_16_160
*690 FILLER_16_171
*691 FILLER_16_179
*692 FILLER_16_193
*693 FILLER_16_205
*694 FILLER_16_213
*695 FILLER_16_234
*696 FILLER_16_246
*697 FILLER_16_253
*698 FILLER_16_265
*699 FILLER_16_27
*700 FILLER_16_277
*701 FILLER_16_289
*702 FILLER_16_29
*703 FILLER_16_3
*704 FILLER_16_301
*705 FILLER_16_307
*706 FILLER_16_309
*707 FILLER_16_321
*708 FILLER_16_333
*709 FILLER_16_345
*710 FILLER_16_357
*711 FILLER_16_363
*712 FILLER_16_365
*713 FILLER_16_377
*714 FILLER_16_389
*715 FILLER_16_401
*716 FILLER_16_41
*717 FILLER_16_53
*718 FILLER_16_65
*719 FILLER_16_77
*720 FILLER_16_83
*721 FILLER_16_85
*722 FILLER_16_97
*723 FILLER_17_105
*724 FILLER_17_111
*725 FILLER_17_113
*726 FILLER_17_125
*727 FILLER_17_137
*728 FILLER_17_149
*729 FILLER_17_15
*730 FILLER_17_153
*731 FILLER_17_166
*732 FILLER_17_169
*733 FILLER_17_181
*734 FILLER_17_193
*735 FILLER_17_205
*736 FILLER_17_223
*737 FILLER_17_225
*738 FILLER_17_237
*739 FILLER_17_249
*740 FILLER_17_261
*741 FILLER_17_27
*742 FILLER_17_273
*743 FILLER_17_279
*744 FILLER_17_281
*745 FILLER_17_293
*746 FILLER_17_3
*747 FILLER_17_305
*748 FILLER_17_317
*749 FILLER_17_329
*750 FILLER_17_335
*751 FILLER_17_337
*752 FILLER_17_349
*753 FILLER_17_361
*754 FILLER_17_373
*755 FILLER_17_385
*756 FILLER_17_39
*757 FILLER_17_391
*758 FILLER_17_393
*759 FILLER_17_397
*760 FILLER_17_51
*761 FILLER_17_55
*762 FILLER_17_57
*763 FILLER_17_69
*764 FILLER_17_81
*765 FILLER_17_93
*766 FILLER_18_110
*767 FILLER_18_117
*768 FILLER_18_129
*769 FILLER_18_137
*770 FILLER_18_141
*771 FILLER_18_15
*772 FILLER_18_153
*773 FILLER_18_165
*774 FILLER_18_177
*775 FILLER_18_189
*776 FILLER_18_195
*777 FILLER_18_197
*778 FILLER_18_209
*779 FILLER_18_221
*780 FILLER_18_233
*781 FILLER_18_245
*782 FILLER_18_251
*783 FILLER_18_253
*784 FILLER_18_265
*785 FILLER_18_27
*786 FILLER_18_277
*787 FILLER_18_289
*788 FILLER_18_29
*789 FILLER_18_3
*790 FILLER_18_301
*791 FILLER_18_307
*792 FILLER_18_309
*793 FILLER_18_321
*794 FILLER_18_333
*795 FILLER_18_345
*796 FILLER_18_357
*797 FILLER_18_363
*798 FILLER_18_365
*799 FILLER_18_377
*800 FILLER_18_389
*801 FILLER_18_401
*802 FILLER_18_41
*803 FILLER_18_53
*804 FILLER_18_65
*805 FILLER_18_77
*806 FILLER_18_83
*807 FILLER_18_85
*808 FILLER_18_98
*809 FILLER_19_102
*810 FILLER_19_110
*811 FILLER_19_113
*812 FILLER_19_125
*813 FILLER_19_137
*814 FILLER_19_149
*815 FILLER_19_15
*816 FILLER_19_161
*817 FILLER_19_167
*818 FILLER_19_169
*819 FILLER_19_181
*820 FILLER_19_193
*821 FILLER_19_205
*822 FILLER_19_217
*823 FILLER_19_223
*824 FILLER_19_225
*825 FILLER_19_237
*826 FILLER_19_249
*827 FILLER_19_261
*828 FILLER_19_27
*829 FILLER_19_273
*830 FILLER_19_279
*831 FILLER_19_281
*832 FILLER_19_293
*833 FILLER_19_3
*834 FILLER_19_305
*835 FILLER_19_317
*836 FILLER_19_329
*837 FILLER_19_335
*838 FILLER_19_337
*839 FILLER_19_349
*840 FILLER_19_361
*841 FILLER_19_373
*842 FILLER_19_385
*843 FILLER_19_39
*844 FILLER_19_391
*845 FILLER_19_393
*846 FILLER_19_405
*847 FILLER_19_51
*848 FILLER_19_55
*849 FILLER_19_57
*850 FILLER_19_69
*851 FILLER_19_81
*852 FILLER_19_93
*853 FILLER_1_105
*854 FILLER_1_111
*855 FILLER_1_113
*856 FILLER_1_125
*857 FILLER_1_137
*858 FILLER_1_149
*859 FILLER_1_15
*860 FILLER_1_161
*861 FILLER_1_167
*862 FILLER_1_169
*863 FILLER_1_181
*864 FILLER_1_193
*865 FILLER_1_205
*866 FILLER_1_217
*867 FILLER_1_223
*868 FILLER_1_225
*869 FILLER_1_237
*870 FILLER_1_249
*871 FILLER_1_261
*872 FILLER_1_27
*873 FILLER_1_273
*874 FILLER_1_279
*875 FILLER_1_281
*876 FILLER_1_293
*877 FILLER_1_3
*878 FILLER_1_305
*879 FILLER_1_317
*880 FILLER_1_329
*881 FILLER_1_335
*882 FILLER_1_337
*883 FILLER_1_349
*884 FILLER_1_361
*885 FILLER_1_373
*886 FILLER_1_385
*887 FILLER_1_39
*888 FILLER_1_391
*889 FILLER_1_393
*890 FILLER_1_405
*891 FILLER_1_51
*892 FILLER_1_55
*893 FILLER_1_57
*894 FILLER_1_69
*895 FILLER_1_81
*896 FILLER_1_93
*897 FILLER_20_107
*898 FILLER_20_119
*899 FILLER_20_135
*900 FILLER_20_139
*901 FILLER_20_141
*902 FILLER_20_15
*903 FILLER_20_153
*904 FILLER_20_167
*905 FILLER_20_179
*906 FILLER_20_188
*907 FILLER_20_197
*908 FILLER_20_209
*909 FILLER_20_223
*910 FILLER_20_235
*911 FILLER_20_247
*912 FILLER_20_251
*913 FILLER_20_253
*914 FILLER_20_265
*915 FILLER_20_27
*916 FILLER_20_277
*917 FILLER_20_289
*918 FILLER_20_29
*919 FILLER_20_3
*920 FILLER_20_301
*921 FILLER_20_307
*922 FILLER_20_309
*923 FILLER_20_321
*924 FILLER_20_333
*925 FILLER_20_345
*926 FILLER_20_357
*927 FILLER_20_363
*928 FILLER_20_365
*929 FILLER_20_377
*930 FILLER_20_389
*931 FILLER_20_401
*932 FILLER_20_41
*933 FILLER_20_53
*934 FILLER_20_65
*935 FILLER_20_80
*936 FILLER_20_85
*937 FILLER_20_97
*938 FILLER_21_110
*939 FILLER_21_113
*940 FILLER_21_119
*941 FILLER_21_133
*942 FILLER_21_145
*943 FILLER_21_15
*944 FILLER_21_151
*945 FILLER_21_165
*946 FILLER_21_177
*947 FILLER_21_189
*948 FILLER_21_201
*949 FILLER_21_220
*950 FILLER_21_225
*951 FILLER_21_237
*952 FILLER_21_249
*953 FILLER_21_257
*954 FILLER_21_27
*955 FILLER_21_273
*956 FILLER_21_279
*957 FILLER_21_281
*958 FILLER_21_293
*959 FILLER_21_3
*960 FILLER_21_305
*961 FILLER_21_317
*962 FILLER_21_329
*963 FILLER_21_335
*964 FILLER_21_337
*965 FILLER_21_349
*966 FILLER_21_361
*967 FILLER_21_373
*968 FILLER_21_385
*969 FILLER_21_39
*970 FILLER_21_391
*971 FILLER_21_393
*972 FILLER_21_405
*973 FILLER_21_51
*974 FILLER_21_55
*975 FILLER_21_57
*976 FILLER_21_69
*977 FILLER_21_73
*978 FILLER_21_86
*979 FILLER_21_98
*980 FILLER_22_109
*981 FILLER_22_113
*982 FILLER_22_134
*983 FILLER_22_141
*984 FILLER_22_149
*985 FILLER_22_15
*986 FILLER_22_161
*987 FILLER_22_167
*988 FILLER_22_179
*989 FILLER_22_191
*990 FILLER_22_195
*991 FILLER_22_197
*992 FILLER_22_224
*993 FILLER_22_236
*994 FILLER_22_248
*995 FILLER_22_253
*996 FILLER_22_257
*997 FILLER_22_264
*998 FILLER_22_27
*999 FILLER_22_276
*1000 FILLER_22_288
*1001 FILLER_22_29
*1002 FILLER_22_3
*1003 FILLER_22_300
*1004 FILLER_22_309
*1005 FILLER_22_321
*1006 FILLER_22_333
*1007 FILLER_22_345
*1008 FILLER_22_357
*1009 FILLER_22_363
*1010 FILLER_22_365
*1011 FILLER_22_377
*1012 FILLER_22_389
*1013 FILLER_22_401
*1014 FILLER_22_41
*1015 FILLER_22_53
*1016 FILLER_22_65
*1017 FILLER_22_77
*1018 FILLER_22_83
*1019 FILLER_22_85
*1020 FILLER_22_97
*1021 FILLER_23_104
*1022 FILLER_23_116
*1023 FILLER_23_128
*1024 FILLER_23_140
*1025 FILLER_23_15
*1026 FILLER_23_152
*1027 FILLER_23_164
*1028 FILLER_23_169
*1029 FILLER_23_181
*1030 FILLER_23_196
*1031 FILLER_23_211
*1032 FILLER_23_223
*1033 FILLER_23_225
*1034 FILLER_23_237
*1035 FILLER_23_249
*1036 FILLER_23_27
*1037 FILLER_23_276
*1038 FILLER_23_281
*1039 FILLER_23_293
*1040 FILLER_23_3
*1041 FILLER_23_305
*1042 FILLER_23_317
*1043 FILLER_23_329
*1044 FILLER_23_335
*1045 FILLER_23_337
*1046 FILLER_23_349
*1047 FILLER_23_361
*1048 FILLER_23_373
*1049 FILLER_23_385
*1050 FILLER_23_39
*1051 FILLER_23_391
*1052 FILLER_23_393
*1053 FILLER_23_405
*1054 FILLER_23_47
*1055 FILLER_23_55
*1056 FILLER_23_57
*1057 FILLER_23_65
*1058 FILLER_23_92
*1059 FILLER_24_103
*1060 FILLER_24_117
*1061 FILLER_24_129
*1062 FILLER_24_137
*1063 FILLER_24_141
*1064 FILLER_24_15
*1065 FILLER_24_151
*1066 FILLER_24_163
*1067 FILLER_24_175
*1068 FILLER_24_187
*1069 FILLER_24_195
*1070 FILLER_24_197
*1071 FILLER_24_209
*1072 FILLER_24_221
*1073 FILLER_24_233
*1074 FILLER_24_245
*1075 FILLER_24_251
*1076 FILLER_24_253
*1077 FILLER_24_265
*1078 FILLER_24_27
*1079 FILLER_24_277
*1080 FILLER_24_289
*1081 FILLER_24_29
*1082 FILLER_24_3
*1083 FILLER_24_301
*1084 FILLER_24_307
*1085 FILLER_24_309
*1086 FILLER_24_321
*1087 FILLER_24_333
*1088 FILLER_24_345
*1089 FILLER_24_357
*1090 FILLER_24_363
*1091 FILLER_24_365
*1092 FILLER_24_377
*1093 FILLER_24_389
*1094 FILLER_24_401
*1095 FILLER_24_41
*1096 FILLER_24_53
*1097 FILLER_24_65
*1098 FILLER_24_77
*1099 FILLER_24_83
*1100 FILLER_24_85
*1101 FILLER_24_97
*1102 FILLER_25_105
*1103 FILLER_25_111
*1104 FILLER_25_113
*1105 FILLER_25_125
*1106 FILLER_25_137
*1107 FILLER_25_143
*1108 FILLER_25_162
*1109 FILLER_25_169
*1110 FILLER_25_181
*1111 FILLER_25_186
*1112 FILLER_25_19
*1113 FILLER_25_198
*1114 FILLER_25_208
*1115 FILLER_25_220
*1116 FILLER_25_225
*1117 FILLER_25_237
*1118 FILLER_25_254
*1119 FILLER_25_266
*1120 FILLER_25_278
*1121 FILLER_25_281
*1122 FILLER_25_293
*1123 FILLER_25_305
*1124 FILLER_25_31
*1125 FILLER_25_317
*1126 FILLER_25_329
*1127 FILLER_25_335
*1128 FILLER_25_337
*1129 FILLER_25_349
*1130 FILLER_25_361
*1131 FILLER_25_373
*1132 FILLER_25_385
*1133 FILLER_25_391
*1134 FILLER_25_393
*1135 FILLER_25_405
*1136 FILLER_25_43
*1137 FILLER_25_55
*1138 FILLER_25_57
*1139 FILLER_25_69
*1140 FILLER_25_7
*1141 FILLER_25_81
*1142 FILLER_25_93
*1143 FILLER_26_115
*1144 FILLER_26_127
*1145 FILLER_26_139
*1146 FILLER_26_15
*1147 FILLER_26_153
*1148 FILLER_26_173
*1149 FILLER_26_181
*1150 FILLER_26_19
*1151 FILLER_26_191
*1152 FILLER_26_195
*1153 FILLER_26_197
*1154 FILLER_26_209
*1155 FILLER_26_221
*1156 FILLER_26_233
*1157 FILLER_26_245
*1158 FILLER_26_251
*1159 FILLER_26_253
*1160 FILLER_26_265
*1161 FILLER_26_27
*1162 FILLER_26_277
*1163 FILLER_26_289
*1164 FILLER_26_29
*1165 FILLER_26_301
*1166 FILLER_26_307
*1167 FILLER_26_309
*1168 FILLER_26_321
*1169 FILLER_26_333
*1170 FILLER_26_345
*1171 FILLER_26_357
*1172 FILLER_26_363
*1173 FILLER_26_365
*1174 FILLER_26_377
*1175 FILLER_26_389
*1176 FILLER_26_397
*1177 FILLER_26_47
*1178 FILLER_26_52
*1179 FILLER_26_64
*1180 FILLER_26_7
*1181 FILLER_26_76
*1182 FILLER_26_85
*1183 FILLER_26_97
*1184 FILLER_27_104
*1185 FILLER_27_113
*1186 FILLER_27_125
*1187 FILLER_27_137
*1188 FILLER_27_143
*1189 FILLER_27_15
*1190 FILLER_27_159
*1191 FILLER_27_167
*1192 FILLER_27_169
*1193 FILLER_27_184
*1194 FILLER_27_196
*1195 FILLER_27_208
*1196 FILLER_27_220
*1197 FILLER_27_234
*1198 FILLER_27_24
*1199 FILLER_27_243
*1200 FILLER_27_255
*1201 FILLER_27_267
*1202 FILLER_27_279
*1203 FILLER_27_281
*1204 FILLER_27_293
*1205 FILLER_27_3
*1206 FILLER_27_305
*1207 FILLER_27_317
*1208 FILLER_27_329
*1209 FILLER_27_33
*1210 FILLER_27_335
*1211 FILLER_27_337
*1212 FILLER_27_349
*1213 FILLER_27_361
*1214 FILLER_27_373
*1215 FILLER_27_385
*1216 FILLER_27_391
*1217 FILLER_27_393
*1218 FILLER_27_397
*1219 FILLER_27_49
*1220 FILLER_27_55
*1221 FILLER_27_57
*1222 FILLER_27_69
*1223 FILLER_27_81
*1224 FILLER_27_93
*1225 FILLER_28_108
*1226 FILLER_28_120
*1227 FILLER_28_132
*1228 FILLER_28_141
*1229 FILLER_28_153
*1230 FILLER_28_165
*1231 FILLER_28_177
*1232 FILLER_28_189
*1233 FILLER_28_195
*1234 FILLER_28_197
*1235 FILLER_28_209
*1236 FILLER_28_213
*1237 FILLER_28_221
*1238 FILLER_28_233
*1239 FILLER_28_237
*1240 FILLER_28_245
*1241 FILLER_28_251
*1242 FILLER_28_253
*1243 FILLER_28_26
*1244 FILLER_28_265
*1245 FILLER_28_286
*1246 FILLER_28_29
*1247 FILLER_28_298
*1248 FILLER_28_3
*1249 FILLER_28_306
*1250 FILLER_28_309
*1251 FILLER_28_321
*1252 FILLER_28_333
*1253 FILLER_28_345
*1254 FILLER_28_357
*1255 FILLER_28_363
*1256 FILLER_28_365
*1257 FILLER_28_377
*1258 FILLER_28_389
*1259 FILLER_28_401
*1260 FILLER_28_41
*1261 FILLER_28_53
*1262 FILLER_28_65
*1263 FILLER_28_70
*1264 FILLER_28_82
*1265 FILLER_28_88
*1266 FILLER_28_9
*1267 FILLER_28_94
*1268 FILLER_29_111
*1269 FILLER_29_113
*1270 FILLER_29_125
*1271 FILLER_29_137
*1272 FILLER_29_149
*1273 FILLER_29_15
*1274 FILLER_29_161
*1275 FILLER_29_167
*1276 FILLER_29_169
*1277 FILLER_29_181
*1278 FILLER_29_193
*1279 FILLER_29_205
*1280 FILLER_29_217
*1281 FILLER_29_223
*1282 FILLER_29_225
*1283 FILLER_29_237
*1284 FILLER_29_249
*1285 FILLER_29_267
*1286 FILLER_29_27
*1287 FILLER_29_294
*1288 FILLER_29_3
*1289 FILLER_29_306
*1290 FILLER_29_318
*1291 FILLER_29_330
*1292 FILLER_29_337
*1293 FILLER_29_349
*1294 FILLER_29_361
*1295 FILLER_29_373
*1296 FILLER_29_385
*1297 FILLER_29_39
*1298 FILLER_29_391
*1299 FILLER_29_393
*1300 FILLER_29_405
*1301 FILLER_29_51
*1302 FILLER_29_55
*1303 FILLER_29_57
*1304 FILLER_29_82
*1305 FILLER_2_109
*1306 FILLER_2_121
*1307 FILLER_2_133
*1308 FILLER_2_139
*1309 FILLER_2_141
*1310 FILLER_2_15
*1311 FILLER_2_153
*1312 FILLER_2_165
*1313 FILLER_2_177
*1314 FILLER_2_189
*1315 FILLER_2_195
*1316 FILLER_2_197
*1317 FILLER_2_209
*1318 FILLER_2_221
*1319 FILLER_2_233
*1320 FILLER_2_245
*1321 FILLER_2_251
*1322 FILLER_2_253
*1323 FILLER_2_265
*1324 FILLER_2_27
*1325 FILLER_2_277
*1326 FILLER_2_289
*1327 FILLER_2_29
*1328 FILLER_2_3
*1329 FILLER_2_301
*1330 FILLER_2_307
*1331 FILLER_2_309
*1332 FILLER_2_321
*1333 FILLER_2_333
*1334 FILLER_2_345
*1335 FILLER_2_357
*1336 FILLER_2_363
*1337 FILLER_2_365
*1338 FILLER_2_377
*1339 FILLER_2_389
*1340 FILLER_2_401
*1341 FILLER_2_41
*1342 FILLER_2_53
*1343 FILLER_2_65
*1344 FILLER_2_77
*1345 FILLER_2_83
*1346 FILLER_2_85
*1347 FILLER_2_97
*1348 FILLER_30_107
*1349 FILLER_30_119
*1350 FILLER_30_131
*1351 FILLER_30_139
*1352 FILLER_30_141
*1353 FILLER_30_15
*1354 FILLER_30_153
*1355 FILLER_30_165
*1356 FILLER_30_177
*1357 FILLER_30_189
*1358 FILLER_30_195
*1359 FILLER_30_197
*1360 FILLER_30_205
*1361 FILLER_30_209
*1362 FILLER_30_217
*1363 FILLER_30_229
*1364 FILLER_30_241
*1365 FILLER_30_249
*1366 FILLER_30_253
*1367 FILLER_30_265
*1368 FILLER_30_27
*1369 FILLER_30_277
*1370 FILLER_30_289
*1371 FILLER_30_29
*1372 FILLER_30_3
*1373 FILLER_30_301
*1374 FILLER_30_307
*1375 FILLER_30_309
*1376 FILLER_30_321
*1377 FILLER_30_333
*1378 FILLER_30_345
*1379 FILLER_30_357
*1380 FILLER_30_363
*1381 FILLER_30_365
*1382 FILLER_30_377
*1383 FILLER_30_389
*1384 FILLER_30_401
*1385 FILLER_30_41
*1386 FILLER_30_53
*1387 FILLER_30_65
*1388 FILLER_30_77
*1389 FILLER_30_83
*1390 FILLER_30_85
*1391 FILLER_30_93
*1392 FILLER_31_103
*1393 FILLER_31_111
*1394 FILLER_31_113
*1395 FILLER_31_125
*1396 FILLER_31_137
*1397 FILLER_31_146
*1398 FILLER_31_150
*1399 FILLER_31_155
*1400 FILLER_31_167
*1401 FILLER_31_169
*1402 FILLER_31_181
*1403 FILLER_31_19
*1404 FILLER_31_193
*1405 FILLER_31_217
*1406 FILLER_31_223
*1407 FILLER_31_225
*1408 FILLER_31_237
*1409 FILLER_31_249
*1410 FILLER_31_261
*1411 FILLER_31_279
*1412 FILLER_31_281
*1413 FILLER_31_293
*1414 FILLER_31_305
*1415 FILLER_31_31
*1416 FILLER_31_317
*1417 FILLER_31_329
*1418 FILLER_31_335
*1419 FILLER_31_337
*1420 FILLER_31_349
*1421 FILLER_31_361
*1422 FILLER_31_373
*1423 FILLER_31_385
*1424 FILLER_31_391
*1425 FILLER_31_393
*1426 FILLER_31_405
*1427 FILLER_31_43
*1428 FILLER_31_55
*1429 FILLER_31_57
*1430 FILLER_31_7
*1431 FILLER_31_76
*1432 FILLER_31_88
*1433 FILLER_32_109
*1434 FILLER_32_121
*1435 FILLER_32_133
*1436 FILLER_32_139
*1437 FILLER_32_172
*1438 FILLER_32_187
*1439 FILLER_32_19
*1440 FILLER_32_195
*1441 FILLER_32_217
*1442 FILLER_32_229
*1443 FILLER_32_241
*1444 FILLER_32_249
*1445 FILLER_32_253
*1446 FILLER_32_265
*1447 FILLER_32_27
*1448 FILLER_32_277
*1449 FILLER_32_289
*1450 FILLER_32_29
*1451 FILLER_32_301
*1452 FILLER_32_307
*1453 FILLER_32_309
*1454 FILLER_32_321
*1455 FILLER_32_333
*1456 FILLER_32_345
*1457 FILLER_32_357
*1458 FILLER_32_363
*1459 FILLER_32_365
*1460 FILLER_32_377
*1461 FILLER_32_389
*1462 FILLER_32_40
*1463 FILLER_32_401
*1464 FILLER_32_52
*1465 FILLER_32_64
*1466 FILLER_32_7
*1467 FILLER_32_74
*1468 FILLER_32_82
*1469 FILLER_32_85
*1470 FILLER_32_97
*1471 FILLER_33_105
*1472 FILLER_33_111
*1473 FILLER_33_113
*1474 FILLER_33_125
*1475 FILLER_33_137
*1476 FILLER_33_143
*1477 FILLER_33_148
*1478 FILLER_33_15
*1479 FILLER_33_160
*1480 FILLER_33_19
*1481 FILLER_33_194
*1482 FILLER_33_206
*1483 FILLER_33_218
*1484 FILLER_33_225
*1485 FILLER_33_237
*1486 FILLER_33_248
*1487 FILLER_33_260
*1488 FILLER_33_276
*1489 FILLER_33_281
*1490 FILLER_33_293
*1491 FILLER_33_3
*1492 FILLER_33_305
*1493 FILLER_33_31
*1494 FILLER_33_317
*1495 FILLER_33_329
*1496 FILLER_33_335
*1497 FILLER_33_337
*1498 FILLER_33_349
*1499 FILLER_33_361
*1500 FILLER_33_373
*1501 FILLER_33_385
*1502 FILLER_33_391
*1503 FILLER_33_393
*1504 FILLER_33_405
*1505 FILLER_33_43
*1506 FILLER_33_55
*1507 FILLER_33_57
*1508 FILLER_33_69
*1509 FILLER_33_81
*1510 FILLER_33_93
*1511 FILLER_34_109
*1512 FILLER_34_121
*1513 FILLER_34_15
*1514 FILLER_34_150
*1515 FILLER_34_162
*1516 FILLER_34_174
*1517 FILLER_34_186
*1518 FILLER_34_194
*1519 FILLER_34_197
*1520 FILLER_34_209
*1521 FILLER_34_221
*1522 FILLER_34_237
*1523 FILLER_34_248
*1524 FILLER_34_253
*1525 FILLER_34_262
*1526 FILLER_34_27
*1527 FILLER_34_274
*1528 FILLER_34_286
*1529 FILLER_34_29
*1530 FILLER_34_298
*1531 FILLER_34_3
*1532 FILLER_34_306
*1533 FILLER_34_309
*1534 FILLER_34_321
*1535 FILLER_34_333
*1536 FILLER_34_345
*1537 FILLER_34_357
*1538 FILLER_34_363
*1539 FILLER_34_365
*1540 FILLER_34_377
*1541 FILLER_34_389
*1542 FILLER_34_401
*1543 FILLER_34_42
*1544 FILLER_34_46
*1545 FILLER_34_53
*1546 FILLER_34_65
*1547 FILLER_34_77
*1548 FILLER_34_83
*1549 FILLER_34_85
*1550 FILLER_34_97
*1551 FILLER_35_105
*1552 FILLER_35_111
*1553 FILLER_35_113
*1554 FILLER_35_125
*1555 FILLER_35_133
*1556 FILLER_35_137
*1557 FILLER_35_145
*1558 FILLER_35_15
*1559 FILLER_35_150
*1560 FILLER_35_162
*1561 FILLER_35_169
*1562 FILLER_35_181
*1563 FILLER_35_193
*1564 FILLER_35_205
*1565 FILLER_35_217
*1566 FILLER_35_223
*1567 FILLER_35_225
*1568 FILLER_35_237
*1569 FILLER_35_249
*1570 FILLER_35_261
*1571 FILLER_35_27
*1572 FILLER_35_273
*1573 FILLER_35_279
*1574 FILLER_35_281
*1575 FILLER_35_293
*1576 FILLER_35_3
*1577 FILLER_35_305
*1578 FILLER_35_317
*1579 FILLER_35_329
*1580 FILLER_35_335
*1581 FILLER_35_337
*1582 FILLER_35_349
*1583 FILLER_35_361
*1584 FILLER_35_373
*1585 FILLER_35_385
*1586 FILLER_35_391
*1587 FILLER_35_393
*1588 FILLER_35_405
*1589 FILLER_35_48
*1590 FILLER_35_57
*1591 FILLER_35_69
*1592 FILLER_35_81
*1593 FILLER_35_93
*1594 FILLER_36_111
*1595 FILLER_36_123
*1596 FILLER_36_135
*1597 FILLER_36_139
*1598 FILLER_36_148
*1599 FILLER_36_160
*1600 FILLER_36_172
*1601 FILLER_36_184
*1602 FILLER_36_197
*1603 FILLER_36_209
*1604 FILLER_36_221
*1605 FILLER_36_233
*1606 FILLER_36_245
*1607 FILLER_36_25
*1608 FILLER_36_251
*1609 FILLER_36_253
*1610 FILLER_36_265
*1611 FILLER_36_277
*1612 FILLER_36_289
*1613 FILLER_36_301
*1614 FILLER_36_307
*1615 FILLER_36_309
*1616 FILLER_36_321
*1617 FILLER_36_333
*1618 FILLER_36_345
*1619 FILLER_36_357
*1620 FILLER_36_363
*1621 FILLER_36_365
*1622 FILLER_36_377
*1623 FILLER_36_389
*1624 FILLER_36_401
*1625 FILLER_36_42
*1626 FILLER_36_50
*1627 FILLER_36_55
*1628 FILLER_36_6
*1629 FILLER_36_67
*1630 FILLER_36_71
*1631 FILLER_36_77
*1632 FILLER_36_83
*1633 FILLER_36_85
*1634 FILLER_36_99
*1635 FILLER_37_101
*1636 FILLER_37_109
*1637 FILLER_37_113
*1638 FILLER_37_125
*1639 FILLER_37_137
*1640 FILLER_37_149
*1641 FILLER_37_15
*1642 FILLER_37_161
*1643 FILLER_37_167
*1644 FILLER_37_169
*1645 FILLER_37_181
*1646 FILLER_37_207
*1647 FILLER_37_21
*1648 FILLER_37_219
*1649 FILLER_37_223
*1650 FILLER_37_225
*1651 FILLER_37_237
*1652 FILLER_37_249
*1653 FILLER_37_261
*1654 FILLER_37_273
*1655 FILLER_37_279
*1656 FILLER_37_281
*1657 FILLER_37_29
*1658 FILLER_37_293
*1659 FILLER_37_3
*1660 FILLER_37_305
*1661 FILLER_37_317
*1662 FILLER_37_329
*1663 FILLER_37_335
*1664 FILLER_37_337
*1665 FILLER_37_349
*1666 FILLER_37_361
*1667 FILLER_37_373
*1668 FILLER_37_385
*1669 FILLER_37_391
*1670 FILLER_37_393
*1671 FILLER_37_405
*1672 FILLER_37_41
*1673 FILLER_37_53
*1674 FILLER_37_57
*1675 FILLER_37_65
*1676 FILLER_37_71
*1677 FILLER_37_83
*1678 FILLER_37_92
*1679 FILLER_38_109
*1680 FILLER_38_11
*1681 FILLER_38_121
*1682 FILLER_38_133
*1683 FILLER_38_159
*1684 FILLER_38_171
*1685 FILLER_38_183
*1686 FILLER_38_191
*1687 FILLER_38_195
*1688 FILLER_38_208
*1689 FILLER_38_220
*1690 FILLER_38_232
*1691 FILLER_38_244
*1692 FILLER_38_253
*1693 FILLER_38_265
*1694 FILLER_38_277
*1695 FILLER_38_289
*1696 FILLER_38_3
*1697 FILLER_38_301
*1698 FILLER_38_307
*1699 FILLER_38_309
*1700 FILLER_38_321
*1701 FILLER_38_33
*1702 FILLER_38_333
*1703 FILLER_38_345
*1704 FILLER_38_357
*1705 FILLER_38_363
*1706 FILLER_38_365
*1707 FILLER_38_377
*1708 FILLER_38_389
*1709 FILLER_38_401
*1710 FILLER_38_45
*1711 FILLER_38_57
*1712 FILLER_38_80
*1713 FILLER_38_85
*1714 FILLER_38_97