*SPEF "ieee 1481-1999"
*DESIGN "mult4_SarsaNStepsRuido_e9_SARSA_RUIDO_e9_SARSA_RUIDO_e9_SarsaNStepsRuido_e9"
*DATE "11:57:25 Wednesday September 17, 2025"
*VENDOR "The OpenROAD Project"
*PROGRAM "OpenROAD"
*VERSION "edf00dff99f6c40d67a30c0e22a8191c5d2ed9d6"
*DESIGN_FLOW "NAME_SCOPE LOCAL" "PIN_CAP NONE"
*DIVIDER /
*DELIMITER :
*BUS_DELIMITER []
*T_UNIT 1 NS
*C_UNIT 1 PF
*R_UNIT 1 OHM
*L_UNIT 1 HENRY

*NAME_MAP
*1 A[0]
*2 A[1]
*3 A[2]
*4 A[3]
*5 B[0]
*6 B[1]
*7 B[2]
*8 B[3]
*9 net16
*10 P[1]
*11 P[2]
*12 P[3]
*13 P[4]
*14 P[5]
*15 P[6]
*16 P[7]
*19 _000_
*20 _001_
*21 _002_
*22 _003_
*23 _004_
*24 _005_
*25 _006_
*26 _007_
*27 _008_
*28 _009_
*29 _010_
*30 _011_
*31 _012_
*32 _013_
*33 _014_
*34 _015_
*35 _016_
*36 _017_
*37 _018_
*38 _019_
*39 _020_
*40 _021_
*41 _022_
*42 _023_
*43 _024_
*44 _025_
*45 _026_
*46 _027_
*47 _028_
*48 _029_
*49 _030_
*50 _031_
*51 _032_
*52 _033_
*53 _034_
*54 _035_
*55 _036_
*56 _037_
*57 _038_
*58 _039_
*59 _040_
*60 _041_
*61 _042_
*62 _043_
*63 _044_
*64 _045_
*65 _046_
*66 _047_
*67 _048_
*68 net1
*69 net10
*70 net11
*71 net12
*72 net13
*73 net14
*74 net15
*75 net2
*76 net3
*77 net4
*78 net5
*79 net6
*80 net7
*81 net8
*82 net9
*83 FILLER_0_13
*84 FILLER_0_22
*85 FILLER_0_29
*86 FILLER_0_35
*87 FILLER_0_51
*88 FILLER_0_55
*89 FILLER_0_57
*90 FILLER_0_69
*91 FILLER_0_7
*92 FILLER_1_15
*93 FILLER_1_29
*94 FILLER_1_3
*95 FILLER_1_41
*96 FILLER_1_64
*97 FILLER_1_76
*98 FILLER_2_13
*99 FILLER_2_25
*100 FILLER_2_29
*101 FILLER_2_33
*102 FILLER_2_39
*103 FILLER_2_48
*104 FILLER_2_60
*105 FILLER_2_72
*106 FILLER_2_80
*107 FILLER_3_13
*108 FILLER_3_28
*109 FILLER_3_37
*110 FILLER_3_45
*111 FILLER_3_49
*112 FILLER_3_57
*113 FILLER_3_72
*114 FILLER_3_80
*115 FILLER_3_9
*116 FILLER_4_14
*117 FILLER_4_18
*118 FILLER_4_26
*119 FILLER_4_29
*120 FILLER_4_3
*121 FILLER_4_37
*122 FILLER_4_53
*123 FILLER_4_65
*124 FILLER_4_69
*125 FILLER_4_75
*126 FILLER_5_18
*127 FILLER_5_25
*128 FILLER_5_37
*129 FILLER_5_49
*130 FILLER_5_55
*131 FILLER_5_57
*132 FILLER_5_65
*133 FILLER_5_71
*134 FILLER_6_39
*135 FILLER_6_52
*136 FILLER_6_65
*137 FILLER_6_76
*138 FILLER_7_17
*139 FILLER_7_29
*140 FILLER_7_41
*141 FILLER_7_53
*142 FILLER_7_57
*143 FILLER_7_66
*144 FILLER_7_78
*145 FILLER_8_24
*146 FILLER_8_3
*147 FILLER_8_38
*148 FILLER_8_54
*149 FILLER_8_7
*150 FILLER_8_70
*151 FILLER_8_78
*152 FILLER_9_16
*153 FILLER_9_29
*154 FILLER_9_36
*155 FILLER_9_42
*156 FILLER_9_54
*157 FILLER_9_57
*158 FILLER_9_69
*159 FILLER_9_7
*160 FILLER_9_73
*161 PHY_EDGE_ROW_0_Left_10
*162 PHY_EDGE_ROW_0_Right_0
*163 PHY_EDGE_ROW_1_Left_11
*164 PHY_EDGE_ROW_1_Right_1
*165 PHY_EDGE_ROW_2_Left_12
*166 PHY_EDGE_ROW_2_Right_2
*167 PHY_EDGE_ROW_3_Left_13
*168 PHY_EDGE_ROW_3_Right_3
*169 PHY_EDGE_ROW_4_Left_14
*170 PHY_EDGE_ROW_4_Right_4
*171 PHY_EDGE_ROW_5_Left_15
*172 PHY_EDGE_ROW_5_Right_5
*173 PHY_EDGE_ROW_6_Left_16
*174 PHY_EDGE_ROW_6_Right_6
*175 PHY_EDGE_ROW_7_Left_17
*176 PHY_EDGE_ROW_7_Right_7
*177 PHY_EDGE_ROW_8_Left_18
*178 PHY_EDGE_ROW_8_Right_8
*179 PHY_EDGE_ROW_9_Left_19
*180 PHY_EDGE_ROW_9_Right_9
*181 TAP_TAPCELL_ROW_0_20
*182 TAP_TAPCELL_ROW_0_21
*183 TAP_TAPCELL_ROW_1_22
*184 TAP_TAPCELL_ROW_2_23
*185 TAP_TAPCELL_ROW_3_24
*186 TAP_TAPCELL_ROW_4_25
*187 TAP_TAPCELL_ROW_5_26
*188 TAP_TAPCELL_ROW_6_27
*189 TAP_TAPCELL_ROW_7_28
*190 TAP_TAPCELL_ROW_8_29
*191 TAP_TAPCELL_ROW_9_30
*192 TAP_TAPCELL_ROW_9_31
*193 _049_
*194 _050_
*195 _051_
*196 _052_
*197 _053_
*198 _054_
*199 _055_
*200 _056_
*201 _057_
*202 _058_
*203 _059_
*204 _060_
*205 _061_
*206 _062_
*207 _063_
*208 _064_
*209 _065_
*210 _066_
*211 _067_
*212 _068_
*213 _069_
*214 _070_
*215 _071_
*216 _072_
*217 _073_
*218 _074_
*219 _075_
*220 _076_
*221 _077_
*222 _078_
*223 _079_
*224 _080_
*225 _081_
*226 _082_
*227 _083_
*228 _084_
*229 _085_
*230 _086_
*231 _087_
*232 _088_
*233 _089_
*234 _090_
*235 _091_
*236 _092_
*237 _093_
*238 _094_
*239 _095_
*240 _096_
*241 _097_
*242 _098_
*243 _099_
*244 _100_
*245 _101_
*246 _102_
*247 _103_
*248 _104_
*249 input1
*250 input2
*251 input3
*252 input4
*253 input5
*254 input6
*255 input7
*256 input8
*257 mult4_SarsaNStepsRuido_e9_SARSA_RUIDO_e9_SARSA_RUIDO_e9_SarsaNStepsRuido_e9_16
*258 output10
*259 output11
*260 output12
*261 output13
*262 output14
*263 output15
*264 output9

*PORTS
A[0] I
A[1] I
A[2] I
A[3] I
B[0] I
B[1] I
B[2] I
B[3] I
P[0] O
P[1] O
P[2] O
P[3] O
P[4] O
P[5] O
P[6] O
P[7] O

*D_NET *1 0.000586591
*CONN
*P A[0] I
*I *249:A I *D sky130_fd_sc_hd__dlymetal6s2s_1
*CAP
1 A[0] 0.000265322
2 *249:A 0.000265322
3 *249:A *250:A 2.71788e-05
4 *249:A *251:A 2.87684e-05
*RES
1 A[0] *249:A 20.4803 
*END

*D_NET *2 0.000863171
*CONN
*P A[1] I
*I *250:A I *D sky130_fd_sc_hd__clkbuf_2
*CAP
1 A[1] 0.000417996
2 *250:A 0.000417996
3 *250:A *75:8 0
4 *249:A *250:A 2.71788e-05
*RES
1 A[1] *250:A 23.016 
*END

*D_NET *3 0.00122089
*CONN
*P A[2] I
*I *251:A I *D sky130_fd_sc_hd__clkbuf_2
*CAP
1 A[2] 0.000514193
2 *251:A 0.000514193
3 *251:A *209:B1 0
4 *251:A *226:B1 0.00010096
5 *251:A *227:C 4.01768e-05
6 *251:A *252:A 0
7 *251:A *255:A 2.25951e-05
8 *251:A *80:10 0
9 *251:A *80:12 0
10 *249:A *251:A 2.87684e-05
*RES
1 A[2] *251:A 24.6209 
*END

*D_NET *4 0.000537758
*CONN
*P A[3] I
*I *252:A I *D sky130_fd_sc_hd__dlymetal6s2s_1
*CAP
1 A[3] 0.000230725
2 *252:A 0.000230725
3 *252:A P[7] 0
4 *252:A *226:A2 2.49459e-05
5 *252:A *255:A 2.87684e-05
6 *252:A *256:A 2.25951e-05
7 *251:A *252:A 0
*RES
1 A[3] *252:A 18.73 
*END

*D_NET *5 0.000897713
*CONN
*P B[0] I
*I *253:A I *D sky130_fd_sc_hd__clkbuf_2
*CAP
1 B[0] 0.000422435
2 *253:A 0.000422435
3 *253:A P[1] 0
4 *253:A *254:A 0
5 *253:A *79:8 5.28427e-05
*RES
1 B[0] *253:A 21.9429 
*END

*D_NET *6 0.000881404
*CONN
*P B[1] I
*I *254:A I *D sky130_fd_sc_hd__dlymetal6s2s_1
*CAP
1 B[1] 0.000413087
2 *254:A 0.000413087
3 *254:A *79:8 5.52302e-05
4 *253:A *254:A 0
*RES
1 B[1] *254:A 21.8357 
*END

*D_NET *7 0.000639325
*CONN
*P B[2] I
*I *255:A I *D sky130_fd_sc_hd__dlymetal6s2s_1
*CAP
1 B[2] 0.000293981
2 *255:A 0.000293981
3 *255:A *226:A2 0
4 *251:A *255:A 2.25951e-05
5 *252:A *255:A 2.87684e-05
*RES
1 B[2] *255:A 21.0874 
*END

*D_NET *8 0.00063765
*CONN
*P B[3] I
*I *256:A I *D sky130_fd_sc_hd__clkbuf_2
*CAP
1 B[3] 0.000291558
2 *256:A 0.000291558
3 *256:A P[7] 3.19385e-05
4 *252:A *256:A 2.25951e-05
*RES
1 B[3] *256:A 20.891 
*END

*D_NET *9 0.00073114
*CONN
*P P[0] O
*I *257:LO O *D sky130_fd_sc_hd__conb_1
*CAP
1 P[0] 0.000319132
2 *257:LO 0.000319132
3 P[0] P[5] 9.28756e-05
4 P[0] *261:A 0
*RES
1 *257:LO P[0] 19.3218 
*END

*D_NET *10 0.000970664
*CONN
*P P[1] O
*I *264:X O *D sky130_fd_sc_hd__buf_2
*CAP
1 P[1] 0.000453441
2 *264:X 0.000453441
3 P[1] *264:A 2.89114e-05
4 P[1] *79:8 3.48705e-05
5 *253:A P[1] 0
*RES
1 *264:X P[1] 22.05 
*END

*D_NET *11 0.000495693
*CONN
*P P[2] O
*I *258:X O *D sky130_fd_sc_hd__buf_2
*CAP
1 P[2] 0.000247846
2 *258:X 0.000247846
*RES
1 *258:X P[2] 18.1949 
*END

*D_NET *12 0.000566107
*CONN
*P P[3] O
*I *259:X O *D sky130_fd_sc_hd__buf_2
*CAP
1 P[3] 0.000225497
2 *259:X 0.000225497
3 P[3] P[4] 9.28756e-05
4 P[3] *248:B 2.22371e-05
*RES
1 *259:X P[3] 18.8021 
*END

*D_NET *13 0.000488787
*CONN
*P P[4] O
*I *260:X O *D sky130_fd_sc_hd__buf_2
*CAP
1 P[4] 0.000197956
2 *260:X 0.000197956
3 P[4] P[5] 0
4 P[4] *223:B 0
5 P[3] P[4] 9.28756e-05
*RES
1 *260:X P[4] 18.1949 
*END

*D_NET *14 0.00063409
*CONN
*P P[5] O
*I *261:X O *D sky130_fd_sc_hd__buf_2
*CAP
1 P[5] 0.000270607
2 *261:X 0.000270607
3 P[5] *261:A 0
4 P[0] P[5] 9.28756e-05
5 P[4] P[5] 0
*RES
1 *261:X P[5] 19.4092 
*END

*D_NET *15 0.000954247
*CONN
*P P[6] O
*I *262:X O *D sky130_fd_sc_hd__buf_2
*CAP
1 P[6] 0.000477123
2 *262:X 0.000477123
*RES
1 *262:X P[6] 23.2643 
*END

*D_NET *16 0.000655448
*CONN
*P P[7] O
*I *263:X O *D sky130_fd_sc_hd__buf_2
*CAP
1 P[7] 0.000282142
2 *263:X 0.000282142
3 P[7] *263:A 5.92267e-05
4 *252:A P[7] 0
5 *256:A P[7] 3.19385e-05
*RES
1 *263:X P[7] 19.4092 
*END

*D_NET *19 0.00122543
*CONN
*I *199:B1_N I *D sky130_fd_sc_hd__a21boi_1
*I *195:B1 I *D sky130_fd_sc_hd__o211a_1
*I *193:Y O *D sky130_fd_sc_hd__nand3_1
*CAP
1 *199:B1_N 6.69714e-05
2 *195:B1 0.000118158
3 *193:Y 0.000168109
4 *19:6 0.000353238
5 *195:B1 *195:C1 2.82057e-05
6 *195:B1 *78:16 0.000126446
7 *195:B1 *79:25 0
8 *199:B1_N *194:A1 0
9 *199:B1_N *194:B1 0
10 *199:B1_N *198:D 0
11 *199:B1_N *199:A1 1.33343e-05
12 *199:B1_N *68:16 2.44318e-05
13 *19:6 *193:B 0.00010096
14 *19:6 *68:16 8.43535e-06
15 *19:6 *78:16 0.000217141
*RES
1 *193:Y *19:6 12.7107 
2 *19:6 *195:B1 20.55 
3 *19:6 *199:B1_N 11.2286 
*END

*D_NET *20 0.000279604
*CONN
*I *195:C1 I *D sky130_fd_sc_hd__o211a_1
*I *194:X O *D sky130_fd_sc_hd__a21o_1
*CAP
1 *195:C1 7.3212e-05
2 *194:X 7.3212e-05
3 *195:C1 *75:8 0
4 *195:C1 *78:16 0.000104974
5 *195:B1 *195:C1 2.82057e-05
*RES
1 *194:X *195:C1 29.5464 
*END

*D_NET *21 0.00189297
*CONN
*I *204:A I *D sky130_fd_sc_hd__xnor2_1
*I *206:C I *D sky130_fd_sc_hd__and3_1
*I *196:Y O *D sky130_fd_sc_hd__nand2_1
*CAP
1 *204:A 0.000421492
2 *206:C 0.000211587
3 *196:Y 0.000116115
4 *21:6 0.000749194
5 *204:A *203:A 0
6 *204:A *35:12 2.4065e-05
7 *204:A *45:12 0
8 *206:C *206:B 9.33978e-07
9 *206:C *216:B 0.000126439
10 *206:C *221:A1 2.19778e-05
11 *206:C *45:12 0.000204001
12 *21:6 *35:12 1.34703e-05
13 *21:6 *78:66 3.69047e-06
*RES
1 *196:Y *21:6 10.6571 
2 *21:6 *206:C 23.4786 
3 *21:6 *204:A 23.7643 
*END

*D_NET *22 0.00210221
*CONN
*I *202:A I *D sky130_fd_sc_hd__nor3_1
*I *200:B1 I *D sky130_fd_sc_hd__o21ai_1
*I *205:C I *D sky130_fd_sc_hd__and3_1
*I *197:Y O *D sky130_fd_sc_hd__nand2_1
*CAP
1 *202:A 5.14689e-05
2 *200:B1 0
3 *205:C 0
4 *197:Y 0.000112182
5 *22:21 0.000570136
6 *22:6 0.000630849
7 *202:A *202:B 8.70565e-05
8 *202:A *202:C 5.65955e-05
9 *202:A *25:8 6.55162e-05
10 *202:A *27:8 2.59355e-05
11 *22:6 *205:A 5.52302e-05
12 *22:6 *33:18 2.38298e-05
13 *22:21 *202:B 7.07597e-05
14 *22:21 *202:C 5.49544e-05
15 *22:21 *211:A 5.49544e-05
16 *22:21 *211:C 7.41015e-05
17 *22:21 *23:21 5.72546e-05
18 *22:21 *29:14 9.27866e-05
19 *22:21 *33:18 1.86005e-05
*RES
1 *197:Y *22:6 10.7286 
2 *22:6 *205:C 9.3 
3 *22:6 *22:21 16.875 
4 *22:21 *200:B1 9.3 
5 *22:21 *202:A 11.0679 
*END

*D_NET *23 0.00216004
*CONN
*I *200:A1 I *D sky130_fd_sc_hd__o21ai_1
*I *212:B1 I *D sky130_fd_sc_hd__a21o_1
*I *211:A I *D sky130_fd_sc_hd__and3_1
*I *202:B I *D sky130_fd_sc_hd__nor3_1
*I *198:X O *D sky130_fd_sc_hd__and4_1
*CAP
1 *200:A1 0
2 *212:B1 0.000270796
3 *211:A 1.21645e-05
4 *202:B 0.000164532
5 *198:X 3.86184e-05
6 *23:21 0.000395418
7 *23:8 0.00027699
8 *23:6 3.86184e-05
9 *202:B *202:C 1.64621e-05
10 *202:B *24:6 5.49544e-05
11 *211:A *211:C 5.49544e-05
12 *212:B1 *211:C 0.000129699
13 *212:B1 *212:A1 4.74534e-05
14 *212:B1 *212:A2 3.34366e-05
15 *23:6 *198:B 0.000125863
16 *23:6 *24:6 0.000230053
17 *202:A *202:B 8.70565e-05
18 *22:21 *202:B 7.07597e-05
19 *22:21 *211:A 5.49544e-05
20 *22:21 *23:21 5.72546e-05
*RES
1 *198:X *23:6 11.4786 
2 *23:6 *23:8 4.5 
3 *23:8 *202:B 16.7107 
4 *23:8 *23:21 1.94643 
5 *23:21 *211:A 14.3357 
6 *23:21 *212:B1 18.8179 
7 *23:6 *200:A1 9.3 
*END

*D_NET *24 0.00153451
*CONN
*I *202:C I *D sky130_fd_sc_hd__nor3_1
*I *200:A2 I *D sky130_fd_sc_hd__o21ai_1
*I *199:Y O *D sky130_fd_sc_hd__a21boi_1
*CAP
1 *202:C 5.23028e-05
2 *200:A2 0
3 *199:Y 0.000258819
4 *24:6 0.000311122
5 *202:C *198:B 4.35597e-05
6 *202:C *25:8 5.65955e-05
7 *24:6 *198:A 1.54142e-05
8 *24:6 *198:B 0.000166674
9 *24:6 *198:D 0.000116039
10 *24:6 *199:A1 0.00010096
11 *202:A *202:C 5.65955e-05
12 *202:B *202:C 1.64621e-05
13 *202:B *24:6 5.49544e-05
14 *22:21 *202:C 5.49544e-05
15 *23:6 *24:6 0.000230053
*RES
1 *199:Y *24:6 15.9964 
2 *24:6 *200:A2 9.3 
3 *24:6 *202:C 11.0857 
*END

*D_NET *25 0.0012286
*CONN
*I *201:A I *D sky130_fd_sc_hd__inv_2
*I *221:A3 I *D sky130_fd_sc_hd__a31oi_2
*I *200:Y O *D sky130_fd_sc_hd__o21ai_1
*CAP
1 *201:A 0.000264615
2 *221:A3 0
3 *200:Y 0.000143501
4 *25:8 0.000408116
5 *201:A *203:A 0
6 *201:A *221:A1 3.34295e-05
7 *201:A *27:8 8.50504e-05
8 *25:8 *198:B 0.000142152
9 *25:8 *27:8 2.96211e-05
10 *202:A *25:8 6.55162e-05
11 *202:C *25:8 5.65955e-05
*RES
1 *200:Y *25:8 12.7286 
2 *25:8 *221:A3 9.3 
3 *25:8 *201:A 23.3357 
*END

*D_NET *26 0.000611301
*CONN
*I *203:A I *D sky130_fd_sc_hd__nor2_1
*I *201:Y O *D sky130_fd_sc_hd__inv_2
*CAP
1 *203:A 0.000305651
2 *201:Y 0.000305651
3 *201:A *203:A 0
4 *204:A *203:A 0
*RES
1 *201:Y *203:A 31.3143 
*END

*D_NET *27 0.00136061
*CONN
*I *203:B I *D sky130_fd_sc_hd__nor2_1
*I *221:B1 I *D sky130_fd_sc_hd__a31oi_2
*I *202:Y O *D sky130_fd_sc_hd__nor3_1
*CAP
1 *203:B 0.000122967
2 *221:B1 0
3 *202:Y 0.000471098
4 *27:8 0.000594066
5 *203:B *204:B 3.18676e-05
6 *201:A *27:8 8.50504e-05
7 *202:A *27:8 2.59355e-05
8 *25:8 *27:8 2.96211e-05
*RES
1 *202:Y *27:8 15.4964 
2 *27:8 *221:B1 9.3 
3 *27:8 *203:B 11.8179 
*END

*D_NET *28 0.000221325
*CONN
*I *204:B I *D sky130_fd_sc_hd__xnor2_1
*I *203:Y O *D sky130_fd_sc_hd__nor2_1
*CAP
1 *204:B 9.47288e-05
2 *203:Y 9.47288e-05
3 *203:B *204:B 3.18676e-05
*RES
1 *203:Y *204:B 20.3679 
*END

*D_NET *29 0.00356841
*CONN
*I *207:A I *D sky130_fd_sc_hd__nand2_1
*I *208:A I *D sky130_fd_sc_hd__xnor2_1
*I *205:X O *D sky130_fd_sc_hd__and3_1
*CAP
1 *207:A 9.41522e-05
2 *208:A 0
3 *205:X 0.000756625
4 *29:14 0.000850778
5 *207:A *208:B 0.000231268
6 *207:A *231:A 0
7 *207:A *32:10 7.69167e-05
8 *207:A *55:10 0.000100262
9 *29:14 *211:B 0.000252914
10 *29:14 *211:C 0.000114344
11 *29:14 *229:A 5.41794e-05
12 *29:14 *240:B1 3.006e-05
13 *29:14 *33:18 0.000276211
14 *29:14 *35:12 9.60875e-05
15 *29:14 *55:10 6.12751e-05
16 *29:14 *78:66 5.49544e-05
17 *29:14 *78:84 0.000173083
18 *29:14 *78:93 0.00017309
19 *29:14 *79:62 7.94274e-05
20 *22:21 *29:14 9.27866e-05
*RES
1 *205:X *29:14 35.9964 
2 *29:14 *208:A 9.3 
3 *29:14 *207:A 13.0679 
*END

*D_NET *30 0.00119325
*CONN
*I *207:B I *D sky130_fd_sc_hd__nand2_1
*I *208:B I *D sky130_fd_sc_hd__xnor2_1
*I *206:X O *D sky130_fd_sc_hd__and3_1
*CAP
1 *207:B 0
2 *208:B 0.000161854
3 *206:X 0.000294343
4 *30:12 0.000456197
5 *208:B *218:A 0
6 *208:B *231:A 0
7 *208:B *32:10 4.58976e-05
8 *30:12 *41:12 0
9 *30:12 *45:12 3.69047e-06
10 *207:A *208:B 0.000231268
*RES
1 *206:X *30:12 22.9071 
2 *30:12 *208:B 13.05 
3 *30:12 *207:B 9.3 
*END

*D_NET *31 0.00132139
*CONN
*I *233:A I *D sky130_fd_sc_hd__xnor2_1
*I *237:A1 I *D sky130_fd_sc_hd__a21bo_1
*I *207:Y O *D sky130_fd_sc_hd__nand2_1
*CAP
1 *233:A 0
2 *237:A1 7.50272e-05
3 *207:Y 0.000236169
4 *31:12 0.000311197
5 *237:A1 *233:B 9.90431e-05
6 *237:A1 *237:A2 0.000141729
7 *237:A1 *58:8 0.000311088
8 *31:12 *233:B 1.87955e-05
9 *31:12 *236:A 0
10 *31:12 *32:10 3.18676e-05
11 *31:12 *43:10 0
12 *31:12 *55:10 9.64695e-05
*RES
1 *207:Y *31:12 22.9071 
2 *31:12 *237:A1 12.3 
3 *31:12 *233:A 9.3 
*END

*D_NET *32 0.00101394
*CONN
*I *219:A I *D sky130_fd_sc_hd__xnor2_1
*I *218:A I *D sky130_fd_sc_hd__or2_1
*I *208:Y O *D sky130_fd_sc_hd__xnor2_1
*CAP
1 *219:A 0
2 *218:A 0.000194227
3 *208:Y 0.000171252
4 *32:10 0.000365479
5 *218:A *218:B 0.000102207
6 *218:A *223:A 2.60984e-05
7 *32:10 *218:B 0
8 *207:A *32:10 7.69167e-05
9 *208:B *218:A 0
10 *208:B *32:10 4.58976e-05
11 *31:12 *32:10 3.18676e-05
*RES
1 *208:Y *32:10 13.1571 
2 *32:10 *218:A 12.7286 
3 *32:10 *219:A 9.3 
*END

*D_NET *33 0.00371143
*CONN
*I *211:B I *D sky130_fd_sc_hd__and3_1
*I *212:A1 I *D sky130_fd_sc_hd__a21o_1
*I *209:Y O *D sky130_fd_sc_hd__o211ai_1
*CAP
1 *211:B 0.000189609
2 *212:A1 0.000148637
3 *209:Y 0.000428194
4 *33:18 0.00076644
5 *212:A1 *210:A2 0
6 *212:A1 *210:B1 0
7 *212:A1 *211:C 7.6644e-05
8 *212:A1 *212:A2 4.73656e-05
9 *212:A1 *34:8 2.59355e-05
10 *33:18 *205:A 1.56e-05
11 *33:18 *209:A2 0.000569464
12 *33:18 *209:C1 8.00806e-05
13 *33:18 *68:8 0.000575086
14 *33:18 *81:44 0.000169366
15 *212:B1 *212:A1 4.74534e-05
16 *22:6 *33:18 2.38298e-05
17 *22:21 *33:18 1.86005e-05
18 *29:14 *211:B 0.000252914
19 *29:14 *33:18 0.000276211
*RES
1 *209:Y *33:18 30.3 
2 *33:18 *212:A1 21.3179 
3 *33:18 *211:B 11.8893 
*END

*D_NET *34 0.00128655
*CONN
*I *212:A2 I *D sky130_fd_sc_hd__a21o_1
*I *211:C I *D sky130_fd_sc_hd__and3_1
*I *210:X O *D sky130_fd_sc_hd__a22o_1
*CAP
1 *212:A2 4.01402e-05
2 *211:C 0.000170057
3 *210:X 0.000154835
4 *34:8 0.000365033
5 *211:C *229:B 0
6 *212:A2 *78:84 0
7 *211:A *211:C 5.49544e-05
8 *212:A1 *211:C 7.6644e-05
9 *212:A1 *212:A2 4.73656e-05
10 *212:A1 *34:8 2.59355e-05
11 *212:B1 *211:C 0.000129699
12 *212:B1 *212:A2 3.34366e-05
13 *22:21 *211:C 7.41015e-05
14 *29:14 *211:C 0.000114344
*RES
1 *210:X *34:8 15.5679 
2 *34:8 *211:C 18.55 
3 *34:8 *212:A2 14.8357 
*END

*D_NET *35 0.0029937
*CONN
*I *213:A_N I *D sky130_fd_sc_hd__and2b_1
*I *217:B1 I *D sky130_fd_sc_hd__a21oi_1
*I *211:X O *D sky130_fd_sc_hd__and3_1
*CAP
1 *213:A_N 0.000356213
2 *217:B1 0
3 *211:X 0.000683678
4 *35:12 0.00103989
5 *213:A_N *213:B 3.65607e-05
6 *213:A_N *220:A 0.000135815
7 *213:A_N *220:B 0.000312215
8 *35:12 *41:12 7.90803e-05
9 *35:12 *45:12 5.72433e-05
10 *35:12 *78:66 0.00015938
11 *204:A *35:12 2.4065e-05
12 *21:6 *35:12 1.34703e-05
13 *29:14 *35:12 9.60875e-05
*RES
1 *211:X *35:12 27.6571 
2 *35:12 *217:B1 9.3 
3 *35:12 *213:A_N 16.55 
*END

*D_NET *36 0.00263954
*CONN
*I *213:B I *D sky130_fd_sc_hd__and2b_1
*I *217:A1 I *D sky130_fd_sc_hd__a21oi_1
*I *212:X O *D sky130_fd_sc_hd__a21o_1
*CAP
1 *213:B 0.000312586
2 *217:A1 4.43357e-05
3 *212:X 0.000571318
4 *36:6 0.00092824
5 *213:B *220:A 0.000144773
6 *213:B *220:B 0.000166029
7 *213:B *41:12 5.52302e-05
8 *213:B *44:10 5.52238e-05
9 *217:A1 *220:B 2.08464e-05
10 *217:A1 *40:10 3.57366e-05
11 *36:6 *214:B1 1.97756e-05
12 *36:6 *216:A 0.000139695
13 *36:6 *220:B 1.15281e-05
14 *36:6 *40:10 9.7659e-05
15 *213:A_N *213:B 3.65607e-05
*RES
1 *212:X *36:6 16.4071 
2 *36:6 *217:A1 10.3357 
3 *36:6 *213:B 15.7286 
*END

*D_NET *37 0.000373845
*CONN
*I *220:A I *D sky130_fd_sc_hd__xnor2_1
*I *213:X O *D sky130_fd_sc_hd__and2b_1
*CAP
1 *220:A 2.87603e-05
2 *213:X 2.87603e-05
3 *220:A *220:B 3.57366e-05
4 *213:A_N *220:A 0.000135815
5 *213:B *220:A 0.000144773
*RES
1 *213:X *220:A 20.3857 
*END

*D_NET *38 0.00049515
*CONN
*I *216:A I *D sky130_fd_sc_hd__nor2_1
*I *214:Y O *D sky130_fd_sc_hd__a22oi_1
*CAP
1 *216:A 0.000102309
2 *214:Y 0.000102309
3 *216:A *214:A2 8.13601e-05
4 *216:A *214:B1 2.84109e-05
5 *216:A *40:10 5.7661e-06
6 *216:A *79:77 3.52995e-05
7 *36:6 *216:A 0.000139695
*RES
1 *214:Y *216:A 21.6179 
*END

*D_NET *39 0.000570102
*CONN
*I *216:B I *D sky130_fd_sc_hd__nor2_1
*I *215:X O *D sky130_fd_sc_hd__o211a_1
*CAP
1 *216:B 0.000162585
2 *215:X 0.000162585
3 *216:B *206:A 3.18676e-05
4 *216:B *206:B 3.80953e-06
5 *216:B *40:10 5.71472e-05
6 *216:B *79:77 2.56694e-05
7 *206:C *216:B 0.000126439
*RES
1 *215:X *216:B 30.725 
*END

*D_NET *40 0.00131252
*CONN
*I *220:B I *D sky130_fd_sc_hd__xnor2_1
*I *217:A2 I *D sky130_fd_sc_hd__a21oi_1
*I *216:Y O *D sky130_fd_sc_hd__nor2_1
*CAP
1 *220:B 0.000174899
2 *217:A2 0
3 *216:Y 9.70608e-05
4 *40:10 0.00027196
5 *220:B *41:12 2.59355e-05
6 *213:A_N *220:B 0.000312215
7 *213:B *220:B 0.000166029
8 *216:A *40:10 5.7661e-06
9 *216:B *40:10 5.71472e-05
10 *217:A1 *220:B 2.08464e-05
11 *217:A1 *40:10 3.57366e-05
12 *220:A *220:B 3.57366e-05
13 *36:6 *220:B 1.15281e-05
14 *36:6 *40:10 9.7659e-05
*RES
1 *216:Y *40:10 11.925 
2 *40:10 *217:A2 9.3 
3 *40:10 *220:B 14.9429 
*END

*D_NET *41 0.00149137
*CONN
*I *218:B I *D sky130_fd_sc_hd__or2_1
*I *219:B I *D sky130_fd_sc_hd__xnor2_1
*I *217:Y O *D sky130_fd_sc_hd__a21oi_1
*CAP
1 *218:B 6.22713e-05
2 *219:B 0
3 *217:Y 0.000481385
4 *41:12 0.000543656
5 *218:B *223:A 0.000117175
6 *218:B *43:10 2.44318e-05
7 *41:12 *44:10 0
8 *41:12 *44:21 0
9 *41:12 *44:32 0
10 *41:12 *45:12 0
11 *213:B *41:12 5.52302e-05
12 *218:A *218:B 0.000102207
13 *220:B *41:12 2.59355e-05
14 *30:12 *41:12 0
15 *32:10 *218:B 0
16 *35:12 *41:12 7.90803e-05
*RES
1 *217:Y *41:12 26.8536 
2 *41:12 *219:B 9.3 
3 *41:12 *218:B 11.4964 
*END

*D_NET *42 0.0023804
*CONN
*I *234:B1 I *D sky130_fd_sc_hd__o31a_1
*I *237:A2 I *D sky130_fd_sc_hd__a21bo_1
*I *218:X O *D sky130_fd_sc_hd__or2_1
*CAP
1 *234:B1 0
2 *237:A2 0.000567941
3 *218:X 0.000200204
4 *42:12 0.000768144
5 *237:A2 *233:B 6.69638e-05
6 *237:A2 *234:A1 0.000140933
7 *237:A2 *55:10 0.000125599
8 *237:A2 *58:8 2.36643e-05
9 *42:12 *223:A 0.000143127
10 *42:12 *236:A 9.69119e-06
11 *42:12 *43:10 4.35048e-05
12 *42:12 *44:32 0.000148903
13 *237:A1 *237:A2 0.000141729
*RES
1 *218:X *42:12 22.0143 
2 *42:12 *237:A2 28.9071 
3 *42:12 *234:B1 9.3 
*END

*D_NET *43 0.00211998
*CONN
*I *223:A I *D sky130_fd_sc_hd__xnor2_1
*I *236:A I *D sky130_fd_sc_hd__or4b_1
*I *234:A1 I *D sky130_fd_sc_hd__o31a_1
*I *219:Y O *D sky130_fd_sc_hd__xnor2_1
*CAP
1 *223:A 0.000332531
2 *236:A 0.000151589
3 *234:A1 0.000150531
4 *219:Y 0
5 *43:10 0.000421679
6 *43:4 0.00045209
7 *234:A1 *234:A2 5.33005e-05
8 *234:A1 *234:A3 5.33005e-05
9 *236:A *236:B 0
10 *218:A *223:A 2.60984e-05
11 *218:B *223:A 0.000117175
12 *218:B *43:10 2.44318e-05
13 *237:A2 *234:A1 0.000140933
14 *31:12 *236:A 0
15 *31:12 *43:10 0
16 *42:12 *223:A 0.000143127
17 *42:12 *236:A 9.69119e-06
18 *42:12 *43:10 4.35048e-05
*RES
1 *219:Y *43:4 9.3 
2 *43:4 *43:10 6.67857 
3 *43:10 *234:A1 16.8179 
4 *43:10 *236:A 16.3536 
5 *43:4 *223:A 16.05 
*END

*D_NET *44 0.00363527
*CONN
*I *236:B I *D sky130_fd_sc_hd__or4b_1
*I *234:A2 I *D sky130_fd_sc_hd__o31a_1
*I *222:A I *D sky130_fd_sc_hd__nor2_1
*I *247:A I *D sky130_fd_sc_hd__and2_1
*I *220:Y O *D sky130_fd_sc_hd__xnor2_1
*CAP
1 *236:B 0.000132692
2 *234:A2 3.04135e-05
3 *222:A 0.000134731
4 *247:A 0.000170759
5 *220:Y 0.000287591
6 *44:32 0.000344925
7 *44:21 0.000408164
8 *44:10 0.000549964
9 *222:A *222:B 0.000274294
10 *236:B *236:C 0.000198698
11 *236:B *261:A 0
12 *247:A *247:B 0.000176177
13 *247:A *45:12 5.33005e-05
14 *44:10 *45:16 3.17148e-05
15 *44:21 *45:16 0.000177948
16 *44:21 *45:29 2.31791e-05
17 *44:32 *236:C 4.49293e-05
18 *44:32 *45:29 0.000338359
19 *213:B *44:10 5.52238e-05
20 *234:A1 *234:A2 5.33005e-05
21 *236:A *236:B 0
22 *41:12 *44:10 0
23 *41:12 *44:21 0
24 *41:12 *44:32 0
25 *42:12 *44:32 0.000148903
*RES
1 *220:Y *44:10 17.8 
2 *44:10 *247:A 17.6214 
3 *44:10 *44:21 2.55357 
4 *44:21 *222:A 16.8 
5 *44:21 *44:32 4.98214 
6 *44:32 *234:A2 14.3357 
7 *44:32 *236:B 16.9607 
*END

*D_NET *45 0.00521247
*CONN
*I *247:B I *D sky130_fd_sc_hd__and2_1
*I *236:C I *D sky130_fd_sc_hd__or4b_1
*I *234:A3 I *D sky130_fd_sc_hd__o31a_1
*I *222:B I *D sky130_fd_sc_hd__nor2_1
*I *221:Y O *D sky130_fd_sc_hd__a31oi_2
*CAP
1 *247:B 0.000370446
2 *236:C 0.000216552
3 *234:A3 3.34103e-05
4 *222:B 0.000163551
5 *221:Y 0.000596712
6 *45:29 0.000469344
7 *45:16 0.000495132
8 *45:12 0.00107936
9 *222:B *248:A 7.43578e-06
10 *222:B *259:A 0
11 *222:B *46:6 1.74352e-05
12 *236:C *235:A 6.05161e-06
13 *236:C *235:B 7.50601e-05
14 *236:C *56:8 4.51495e-05
15 *45:12 *221:A1 0
16 *45:12 *79:77 0
17 *45:29 *223:B 0
18 *204:A *45:12 0
19 *206:C *45:12 0.000204001
20 *222:A *222:B 0.000274294
21 *234:A1 *234:A3 5.33005e-05
22 *236:B *236:C 0.000198698
23 *247:A *247:B 0.000176177
24 *247:A *45:12 5.33005e-05
25 *30:12 *45:12 3.69047e-06
26 *35:12 *45:12 5.72433e-05
27 *41:12 *45:12 0
28 *44:10 *45:16 3.17148e-05
29 *44:21 *45:16 0.000177948
30 *44:21 *45:29 2.31791e-05
31 *44:32 *236:C 4.49293e-05
32 *44:32 *45:29 0.000338359
*RES
1 *221:Y *45:12 29.0321 
2 *45:12 *45:16 7.05357 
3 *45:16 *222:B 17.6393 
4 *45:16 *45:29 4.67857 
5 *45:29 *234:A3 14.3357 
6 *45:29 *236:C 18.3179 
7 *45:12 *247:B 15.3714 
*END

*D_NET *46 0.000644572
*CONN
*I *223:B I *D sky130_fd_sc_hd__xnor2_1
*I *248:A I *D sky130_fd_sc_hd__nor2_1
*I *222:Y O *D sky130_fd_sc_hd__nor2_1
*CAP
1 *223:B 0.000122234
2 *248:A 0.000147967
3 *222:Y 3.76513e-05
4 *46:6 0.000307852
5 *248:A *259:A 3.99614e-06
6 P[4] *223:B 0
7 *222:B *248:A 7.43578e-06
8 *222:B *46:6 1.74352e-05
9 *45:29 *223:B 0
*RES
1 *222:Y *46:6 9.83571 
2 *46:6 *248:A 11.925 
3 *46:6 *223:B 20.2464 
*END

*D_NET *47 0.00147682
*CONN
*I *227:A I *D sky130_fd_sc_hd__or3_1
*I *239:S I *D sky130_fd_sc_hd__mux2_1
*I *246:A2 I *D sky130_fd_sc_hd__a211o_1
*I *224:X O *D sky130_fd_sc_hd__and3_1
*CAP
1 *227:A 3.71569e-05
2 *239:S 8.04857e-05
3 *246:A2 0
4 *224:X 0.000121321
5 *47:18 0.000297182
6 *47:12 0.000375174
7 *227:A *77:21 9.90431e-05
8 *239:S *246:B1 7.80968e-05
9 *239:S *263:A 5.5782e-05
10 *47:12 *226:A2 0
11 *47:12 *227:C 0.000128154
12 *47:12 *77:23 0
13 *47:12 *80:69 5.52238e-05
14 *47:18 *226:A2 4.1331e-06
15 *47:18 *238:B 0
16 *47:18 *246:B1 4.1331e-06
17 *47:18 *77:21 0.000140933
*RES
1 *224:X *47:12 20.7821 
2 *47:12 *47:18 8.41071 
3 *47:18 *246:A2 13.8 
4 *47:18 *239:S 16.3536 
5 *47:12 *227:A 10.2464 
*END

*D_NET *48 0.000321328
*CONN
*I *227:B I *D sky130_fd_sc_hd__or3_1
*I *225:Y O *D sky130_fd_sc_hd__nor2_1
*CAP
1 *227:B 0.00010544
2 *225:Y 0.00010544
3 *227:B *50:10 5.52238e-05
4 *227:B *77:21 5.52238e-05
*RES
1 *225:Y *227:B 19.9571 
*END

*D_NET *49 0.000889853
*CONN
*I *227:C I *D sky130_fd_sc_hd__or3_1
*I *226:Y O *D sky130_fd_sc_hd__a21oi_1
*CAP
1 *227:C 0.000282
2 *226:Y 0.000282
3 *227:C *224:B 3.92854e-05
4 *227:C *226:A2 0
5 *227:C *226:B1 2.65105e-05
6 *227:C *76:13 4.0342e-06
7 *227:C *77:23 4.29179e-05
8 *227:C *77:29 4.4775e-05
9 *227:C *80:10 0
10 *251:A *227:C 4.01768e-05
11 *47:12 *227:C 0.000128154
*RES
1 *226:Y *227:C 33.4393 
*END

*D_NET *50 0.00155509
*CONN
*I *232:A I *D sky130_fd_sc_hd__xor2_1
*I *231:A I *D sky130_fd_sc_hd__nor2_1
*I *227:X O *D sky130_fd_sc_hd__or3_1
*CAP
1 *232:A 0
2 *231:A 0.000176883
3 *227:X 0.000374414
4 *50:10 0.000551297
5 *231:A *231:B 0.000213917
6 *231:A *55:10 2.39982e-05
7 *50:10 *225:A 2.89114e-05
8 *50:10 *231:B 5.71472e-05
9 *50:10 *53:8 7.32955e-05
10 *207:A *231:A 0
11 *208:B *231:A 0
12 *227:B *50:10 5.52238e-05
*RES
1 *227:X *50:10 16.0321 
2 *50:10 *231:A 13.1571 
3 *50:10 *232:A 9.3 
*END

*D_NET *51 0.00125902
*CONN
*I *240:A1 I *D sky130_fd_sc_hd__a21oi_1
*I *230:A I *D sky130_fd_sc_hd__xnor2_1
*I *228:X O *D sky130_fd_sc_hd__and4_1
*CAP
1 *240:A1 0
2 *230:A 5.83463e-05
3 *228:X 0.000227581
4 *51:12 0.000285928
5 *230:A *230:B 0.000166269
6 *230:A *52:10 9.25014e-06
7 *230:A *62:8 9.24395e-05
8 *51:12 *229:B 8.00806e-05
9 *51:12 *240:B1 9.71197e-05
10 *51:12 *52:10 0
11 *51:12 *62:8 5.83233e-05
12 *51:12 *81:25 0.000183684
*RES
1 *228:X *51:12 24.0321 
2 *51:12 *230:A 20.55 
3 *51:12 *240:A1 9.3 
*END

*D_NET *52 0.000748609
*CONN
*I *230:B I *D sky130_fd_sc_hd__xnor2_1
*I *240:A2 I *D sky130_fd_sc_hd__a21oi_1
*I *229:X O *D sky130_fd_sc_hd__and4_1
*CAP
1 *230:B 0.000105008
2 *240:A2 0
3 *229:X 0.000138374
4 *52:10 0.000243381
5 *230:B *62:8 1.00375e-05
6 *52:10 *229:A 5.71472e-05
7 *52:10 *62:8 1.91418e-05
8 *230:A *230:B 0.000166269
9 *230:A *52:10 9.25014e-06
10 *51:12 *52:10 0
*RES
1 *229:X *52:10 16.2821 
2 *52:10 *240:A2 13.8 
3 *52:10 *230:B 16.3536 
*END

*D_NET *53 0.000729836
*CONN
*I *231:B I *D sky130_fd_sc_hd__nor2_1
*I *232:B I *D sky130_fd_sc_hd__xor2_1
*I *230:Y O *D sky130_fd_sc_hd__xnor2_1
*CAP
1 *231:B 9.97703e-05
2 *232:B 0
3 *230:Y 8.25738e-05
4 *53:8 0.000182344
5 *231:B *55:10 2.07878e-05
6 *231:A *231:B 0.000213917
7 *50:10 *231:B 5.71472e-05
8 *50:10 *53:8 7.32955e-05
*RES
1 *230:Y *53:8 11.0857 
2 *53:8 *232:B 9.3 
3 *53:8 *231:B 12.4429 
*END

*D_NET *54 0.00118782
*CONN
*I *240:B1 I *D sky130_fd_sc_hd__a21oi_1
*I *231:Y O *D sky130_fd_sc_hd__nor2_1
*CAP
1 *240:B1 0.000530322
2 *231:Y 0.000530322
3 *29:14 *240:B1 3.006e-05
4 *51:12 *240:B1 9.71197e-05
*RES
1 *231:Y *240:B1 35.6357 
*END

*D_NET *55 0.00173786
*CONN
*I *233:B I *D sky130_fd_sc_hd__xnor2_1
*I *237:B1_N I *D sky130_fd_sc_hd__a21bo_1
*I *232:X O *D sky130_fd_sc_hd__xor2_1
*CAP
1 *233:B 8.11045e-05
2 *237:B1_N 0
3 *232:X 0.000481227
4 *55:10 0.000562331
5 *207:A *55:10 0.000100262
6 *231:A *55:10 2.39982e-05
7 *231:B *55:10 2.07878e-05
8 *237:A1 *233:B 9.90431e-05
9 *237:A2 *233:B 6.69638e-05
10 *237:A2 *55:10 0.000125599
11 *29:14 *55:10 6.12751e-05
12 *31:12 *233:B 1.87955e-05
13 *31:12 *55:10 9.64695e-05
*RES
1 *232:X *55:10 21.9071 
2 *55:10 *237:B1_N 13.8 
3 *55:10 *233:B 15.7821 
*END

*D_NET *56 0.0010323
*CONN
*I *235:A I *D sky130_fd_sc_hd__xnor2_1
*I *236:D_N I *D sky130_fd_sc_hd__or4b_1
*I *233:Y O *D sky130_fd_sc_hd__xnor2_1
*CAP
1 *235:A 0.000113726
2 *236:D_N 0
3 *233:Y 0.000326346
4 *56:8 0.000440071
5 *56:8 *58:8 0.00010096
6 *236:C *235:A 6.05161e-06
7 *236:C *56:8 4.51495e-05
*RES
1 *233:Y *56:8 13.55 
2 *56:8 *236:D_N 9.3 
3 *56:8 *235:A 11.0857 
*END

*D_NET *57 0.000384938
*CONN
*I *235:B I *D sky130_fd_sc_hd__xnor2_1
*I *234:X O *D sky130_fd_sc_hd__o31a_1
*CAP
1 *235:B 0.000154939
2 *234:X 0.000154939
3 *236:C *235:B 7.50601e-05
*RES
1 *234:X *235:B 30.0821 
*END

*D_NET *58 0.00199414
*CONN
*I *244:A I *D sky130_fd_sc_hd__and3_1
*I *243:A1 I *D sky130_fd_sc_hd__a21oi_1
*I *236:X O *D sky130_fd_sc_hd__or4b_1
*CAP
1 *244:A 0
2 *243:A1 0.0002001
3 *236:X 0.000463993
4 *58:8 0.000664093
5 *243:A1 *244:C 0.000171949
6 *243:A1 *245:B 2.32717e-05
7 *58:8 *245:B 2.1768e-05
8 *58:8 *59:6 1.32552e-05
9 *237:A1 *58:8 0.000311088
10 *237:A2 *58:8 2.36643e-05
11 *56:8 *58:8 0.00010096
*RES
1 *236:X *58:8 17.8536 
2 *58:8 *243:A1 12.3179 
3 *58:8 *244:A 9.3 
*END

*D_NET *59 0.000797021
*CONN
*I *244:B I *D sky130_fd_sc_hd__and3_1
*I *243:A2 I *D sky130_fd_sc_hd__a21oi_1
*I *237:X O *D sky130_fd_sc_hd__a21bo_1
*CAP
1 *244:B 0
2 *243:A2 0.00014777
3 *237:X 0.000124165
4 *59:6 0.000271935
5 *243:A2 *244:C 1.13883e-05
6 *243:A2 *245:B 9.99853e-05
7 *59:6 *245:B 0.000128523
8 *58:8 *59:6 1.32552e-05
*RES
1 *237:X *59:6 11.0679 
2 *59:6 *243:A2 11.6929 
3 *59:6 *244:B 9.3 
*END

*D_NET *60 0.000384112
*CONN
*I *239:A0 I *D sky130_fd_sc_hd__mux2_1
*I *238:Y O *D sky130_fd_sc_hd__nand2_1
*CAP
1 *239:A0 0.000123858
2 *238:Y 0.000123858
3 *239:A0 *239:A1 9.71197e-05
4 *239:A0 *246:B1 3.92757e-05
*RES
1 *238:Y *239:A0 29.5821 
*END

*D_NET *61 0.000662526
*CONN
*I *242:A I *D sky130_fd_sc_hd__xnor2_1
*I *241:A I *D sky130_fd_sc_hd__nor2_1
*I *239:X O *D sky130_fd_sc_hd__mux2_1
*CAP
1 *242:A 0.000141217
2 *241:A 0.000143988
3 *239:X 0
4 *61:4 0.000285205