*SPEF "ieee 1481-1999"
*DESIGN "mult4_SarsaNada_e10_SARSA_RUIDO_e9_SARSA_RUIDO_e9_SARSA_RUIDO_e9"
*DATE "18:47:22 Tuesday September 16, 2025"
*VENDOR "The OpenROAD Project"
*PROGRAM "OpenROAD"
*VERSION "edf00dff99f6c40d67a30c0e22a8191c5d2ed9d6"
*DESIGN_FLOW "NAME_SCOPE LOCAL" "PIN_CAP NONE"
*DIVIDER /
*DELIMITER :
*BUS_DELIMITER []
*T_UNIT 1 NS
*C_UNIT 1 PF
*R_UNIT 1 OHM
*L_UNIT 1 HENRY

*NAME_MAP
*1 A[0]
*2 A[1]
*3 A[2]
*4 A[3]
*5 B[0]
*6 B[1]
*7 B[2]
*8 B[3]
*9 P[0]
*10 P[1]
*11 P[2]
*12 P[3]
*13 P[4]
*14 P[5]
*15 P[6]
*16 P[7]
*19 _000_
*20 _001_
*21 _002_
*22 _003_
*23 _004_
*24 _005_
*25 _006_
*26 _007_
*27 _008_
*28 _009_
*29 _010_
*30 _011_
*31 _012_
*32 _013_
*33 _014_
*34 _015_
*35 _016_
*36 _017_
*37 _018_
*38 _019_
*39 _020_
*40 _021_
*41 _022_
*42 _023_
*43 _024_
*44 _025_
*45 _026_
*46 _027_
*47 _028_
*48 _029_
*49 _030_
*50 _031_
*51 _032_
*52 _033_
*53 _034_
*54 _035_
*55 _036_
*56 _037_
*57 _038_
*58 _039_
*59 _040_
*60 _041_
*61 _042_
*62 _043_
*63 _044_
*64 _045_
*65 _046_
*66 net1
*67 net10
*68 net11
*69 net12
*70 net13
*71 net14
*72 net15
*73 net16
*74 net2
*75 net3
*76 net4
*77 net5
*78 net6
*79 net7
*80 net8
*81 net9
*82 FILLER_0_10
*83 FILLER_0_14
*84 FILLER_0_23
*85 FILLER_0_29
*86 FILLER_0_55
*87 FILLER_0_57
*88 FILLER_0_61
*89 FILLER_0_69
*90 FILLER_1_11
*91 FILLER_1_17
*92 FILLER_1_21
*93 FILLER_1_25
*94 FILLER_1_37
*95 FILLER_1_41
*96 FILLER_1_51
*97 FILLER_1_55
*98 FILLER_1_69
*99 FILLER_2_11
*100 FILLER_2_16
*101 FILLER_2_3
*102 FILLER_2_32
*103 FILLER_2_40
*104 FILLER_2_51
*105 FILLER_2_59
*106 FILLER_2_71
*107 FILLER_2_79
*108 FILLER_3_15
*109 FILLER_3_26
*110 FILLER_3_3
*111 FILLER_3_48
*112 FILLER_3_65
*113 FILLER_4_12
*114 FILLER_4_24
*115 FILLER_4_29
*116 FILLER_4_41
*117 FILLER_4_6
*118 FILLER_4_61
*119 FILLER_4_73
*120 FILLER_5_14
*121 FILLER_5_26
*122 FILLER_5_3
*123 FILLER_5_38
*124 FILLER_5_49
*125 FILLER_5_55
*126 FILLER_5_57
*127 FILLER_5_65
*128 FILLER_5_70
*129 FILLER_5_78
*130 FILLER_6_19
*131 FILLER_6_36
*132 FILLER_6_42
*133 FILLER_6_63
*134 FILLER_6_7
*135 FILLER_7_11
*136 FILLER_7_26
*137 FILLER_7_3
*138 FILLER_7_38
*139 FILLER_7_50
*140 FILLER_7_57
*141 FILLER_7_69
*142 FILLER_8_15
*143 FILLER_8_23
*144 FILLER_8_29
*145 FILLER_8_3
*146 FILLER_8_64
*147 FILLER_8_7
*148 FILLER_8_74
*149 FILLER_8_80
*150 FILLER_9_18
*151 FILLER_9_27
*152 FILLER_9_36
*153 FILLER_9_42
*154 FILLER_9_54
*155 FILLER_9_57
*156 FILLER_9_6
*157 FILLER_9_69
*158 PHY_EDGE_ROW_0_Left_10
*159 PHY_EDGE_ROW_0_Right_0
*160 PHY_EDGE_ROW_1_Left_11
*161 PHY_EDGE_ROW_1_Right_1
*162 PHY_EDGE_ROW_2_Left_12
*163 PHY_EDGE_ROW_2_Right_2
*164 PHY_EDGE_ROW_3_Left_13
*165 PHY_EDGE_ROW_3_Right_3
*166 PHY_EDGE_ROW_4_Left_14
*167 PHY_EDGE_ROW_4_Right_4
*168 PHY_EDGE_ROW_5_Left_15
*169 PHY_EDGE_ROW_5_Right_5
*170 PHY_EDGE_ROW_6_Left_16
*171 PHY_EDGE_ROW_6_Right_6
*172 PHY_EDGE_ROW_7_Left_17
*173 PHY_EDGE_ROW_7_Right_7
*174 PHY_EDGE_ROW_8_Left_18
*175 PHY_EDGE_ROW_8_Right_8
*176 PHY_EDGE_ROW_9_Left_19
*177 PHY_EDGE_ROW_9_Right_9
*178 TAP_TAPCELL_ROW_0_20
*179 TAP_TAPCELL_ROW_0_21
*180 TAP_TAPCELL_ROW_1_22
*181 TAP_TAPCELL_ROW_2_23
*182 TAP_TAPCELL_ROW_3_24
*183 TAP_TAPCELL_ROW_4_25
*184 TAP_TAPCELL_ROW_5_26
*185 TAP_TAPCELL_ROW_6_27
*186 TAP_TAPCELL_ROW_7_28
*187 TAP_TAPCELL_ROW_8_29
*188 TAP_TAPCELL_ROW_9_30
*189 TAP_TAPCELL_ROW_9_31
*190 _047_
*191 _048_
*192 _049_
*193 _050_
*194 _051_
*195 _052_
*196 _053_
*197 _054_
*198 _055_
*199 _056_
*200 _057_
*201 _058_
*202 _059_
*203 _060_
*204 _061_
*205 _062_
*206 _063_
*207 _064_
*208 _065_
*209 _066_
*210 _067_
*211 _068_
*212 _069_
*213 _070_
*214 _071_
*215 _072_
*216 _073_
*217 _074_
*218 _075_
*219 _076_
*220 _077_
*221 _078_
*222 _079_
*223 _080_
*224 _081_
*225 _082_
*226 _083_
*227 _084_
*228 _085_
*229 _086_
*230 _087_
*231 _088_
*232 _089_
*233 _090_
*234 _091_
*235 _092_
*236 _093_
*237 _094_
*238 _095_
*239 _096_
*240 _097_
*241 _098_
*242 _099_
*243 _100_
*244 _101_
*245 input1
*246 input2
*247 input3
*248 input4
*249 input5
*250 input6
*251 input7
*252 input8
*253 output10
*254 output11
*255 output12
*256 output13
*257 output14
*258 output15
*259 output16
*260 output9

*PORTS
A[0] I
A[1] I
A[2] I
A[3] I
B[0] I
B[1] I
B[2] I
B[3] I
P[0] O
P[1] O
P[2] O
P[3] O
P[4] O
P[5] O
P[6] O
P[7] O

*D_NET *1 0.000654835
*CONN
*P A[0] I
*I *245:A I *D sky130_fd_sc_hd__buf_1
*CAP
1 A[0] 0.000311713
2 *245:A 0.000311713
3 *245:A P[0] 3.14094e-05
4 *245:A *196:B 0
5 *245:A *251:A 0
6 *245:A *66:21 0
*RES
1 A[0] *245:A 7.8543 
*END

*D_NET *2 0.000835276
*CONN
*P A[1] I
*I *246:A I *D sky130_fd_sc_hd__buf_1
*CAP
1 A[1] 0.000384945
2 *246:A 0.000384945
3 *246:A P[1] 0
4 *246:A *191:A 1.70935e-05
5 *246:A *192:A 0
6 *246:A *193:C 4.82919e-05
*RES
1 A[1] *246:A 10.35 
*END

*D_NET *3 0.000784501
*CONN
*P A[2] I
*I *247:A I *D sky130_fd_sc_hd__dlymetal6s2s_1
*CAP
1 A[2] 0.000384261
2 *247:A 0.000384261
3 *247:A *195:B 1.59784e-05
4 *247:A *250:A 0
*RES
1 A[2] *247:A 10.455 
*END

*D_NET *4 0.000643339
*CONN
*P A[3] I
*I *248:A I *D sky130_fd_sc_hd__buf_1
*CAP
1 A[3] 0.000281502
2 *248:A 0.000281502
3 *248:A *252:A 2.24901e-05
4 *248:A *76:8 5.78448e-05
*RES
1 A[3] *248:A 6.63177 
*END

*D_NET *5 0.00135133
*CONN
*P B[0] I
*I *249:A I *D sky130_fd_sc_hd__buf_1
*CAP
1 B[0] 0.000452508
2 *249:A 0.000452508
3 *249:A P[1] 0
4 *249:A *190:A 0
5 *249:A *198:A2 0.000157588
6 *249:A *198:B1 1.07797e-05
7 *249:A *250:A 0
8 *249:A *23:25 4.82863e-05
9 *249:A *74:49 4.82863e-05
10 *249:A *78:16 0.000181369
*RES
1 B[0] *249:A 12.645 
*END

*D_NET *6 0.00124414
*CONN
*P B[1] I
*I *250:A I *D sky130_fd_sc_hd__buf_1
*CAP
1 B[1] 0.000496729
2 *250:A 0.000496729
3 *250:A *195:B 0
4 *250:A *198:A2 0
5 *250:A *198:A3 0.000156901
6 *250:A *211:B 6.95566e-05
7 *250:A *77:63 2.42236e-05
8 *247:A *250:A 0
9 *249:A *250:A 0
*RES
1 B[1] *250:A 12.75 
*END

*D_NET *7 0.000565545
*CONN
*P B[2] I
*I *251:A I *D sky130_fd_sc_hd__buf_1
*CAP
1 B[2] 0.000282773
2 *251:A 0.000282773
3 *251:A *252:A 0
4 *251:A *79:8 0
5 *245:A *251:A 0
*RES
1 B[2] *251:A 7.0893 
*END

*D_NET *8 0.000725455
*CONN
*P B[3] I
*I *252:A I *D sky130_fd_sc_hd__clkbuf_2
*CAP
1 B[3] 0.000351483
2 *252:A 0.000351483
3 *252:A *224:C 0
4 *248:A *252:A 2.24901e-05
5 *251:A *252:A 0
*RES
1 B[3] *252:A 8.4543 
*END

*D_NET *9 0.000648067
*CONN
*P P[0] O
*I *260:X O *D sky130_fd_sc_hd__buf_2
*CAP
1 P[0] 0.000308329
2 *260:X 0.000308329
3 P[0] *74:25 0
4 *245:A P[0] 3.14094e-05
*RES
1 *260:X P[0] 6.0935 
*END

*D_NET *10 0.000950099
*CONN
*P P[1] O
*I *253:X O *D sky130_fd_sc_hd__buf_2
*CAP
1 P[1] 0.0004126
2 *253:X 0.0004126
3 P[1] *78:24 0.0001249
4 *246:A P[1] 0
5 *249:A P[1] 0
*RES
1 *253:X P[1] 10.53 
*END

*D_NET *11 0.000465086
*CONN
*P P[2] O
*I *254:X O *D sky130_fd_sc_hd__buf_2
*CAP
1 P[2] 0.000232543
2 *254:X 0.000232543
3 P[2] P[3] 0
*RES
1 *254:X P[2] 4.90503 
*END

*D_NET *12 0.000687286
*CONN
*P P[3] O
*I *255:X O *D sky130_fd_sc_hd__buf_2
*CAP
1 P[3] 0.000290497
2 *255:X 0.000290497
3 P[3] P[4] 0
4 P[3] *255:A 0.000106292
5 P[2] P[3] 0
*RES
1 *255:X P[3] 5.92503 
*END

*D_NET *13 0.00045292
*CONN
*P P[4] O
*I *256:X O *D sky130_fd_sc_hd__buf_2
*CAP
1 P[4] 0.00022646
2 *256:X 0.00022646
3 P[4] P[5] 0
4 P[4] *222:B 0
5 P[3] P[4] 0
*RES
1 *256:X P[4] 4.90503 
*END

*D_NET *14 0.000584359
*CONN
*P P[5] O
*I *257:X O *D sky130_fd_sc_hd__buf_2
*CAP
1 P[5] 0.000292179
2 *257:X 0.000292179
3 P[5] *257:A 0
4 P[4] P[5] 0
*RES
1 *257:X P[5] 5.92503 
*END

*D_NET *15 0.000896884
*CONN
*P P[6] O
*I *258:X O *D sky130_fd_sc_hd__buf_2
*CAP
1 P[6] 0.000448442
2 *258:X 0.000448442
*RES
1 *258:X P[6] 11.55 
*END

*D_NET *16 0.00146421
*CONN
*P P[7] O
*I *259:X O *D sky130_fd_sc_hd__buf_2
*CAP
1 P[7] 0.000603602
2 *259:X 0.000603602
3 P[7] *61:12 0.000257005
4 P[7] *63:12 0
*RES
1 *259:X P[7] 14.865 
*END

*D_NET *19 0.00212952
*CONN
*I *198:A3 I *D sky130_fd_sc_hd__a31o_1
*I *197:C I *D sky130_fd_sc_hd__and4_1
*I *190:Y O *D sky130_fd_sc_hd__nand2_1
*CAP
1 *198:A3 0.000349634
2 *197:C 0
3 *190:Y 0.000234033
4 *19:6 0.000583667
5 *198:A3 *195:A 1.16578e-05
6 *198:A3 *195:B 1.41095e-05
7 *198:A3 *204:C 5.16348e-05
8 *198:A3 *211:B 2.09211e-05
9 *198:A3 *21:12 0
10 *198:A3 *22:8 2.0514e-05
11 *198:A3 *23:25 1.05984e-05
12 *198:A3 *23:34 0.000196842
13 *198:A3 *25:16 7.05395e-05
14 *198:A3 *75:10 4.00541e-06
15 *198:A3 *77:63 9.30717e-05
16 *19:6 *197:B 1.91597e-05
17 *19:6 *23:25 1.41165e-05
18 *19:6 *74:49 0.000278111
19 *250:A *198:A3 0.000156901
*RES
1 *190:Y *19:6 4.81 
2 *19:6 *197:C 1.6 
3 *19:6 *198:A3 12.365 
*END

*D_NET *20 0.00275235
*CONN
*I *210:A I *D sky130_fd_sc_hd__or3_1
*I *213:B1 I *D sky130_fd_sc_hd__o21ai_1
*I *193:C I *D sky130_fd_sc_hd__and3_1
*I *192:B I *D sky130_fd_sc_hd__nand2_1
*I *191:Y O *D sky130_fd_sc_hd__nand4_1
*CAP
1 *210:A 1.85891e-05
2 *213:B1 0.000187555
3 *193:C 0.00011033
4 *192:B 0.000119421
5 *191:Y 0
6 *20:36 0.000399679
7 *20:10 0.00036257
8 *20:6 0.000326354
9 *192:B *74:8 9.70988e-05
10 *193:C *253:A 1.37328e-05
11 *193:C *74:8 5.83121e-06
12 *193:C *78:24 8.63463e-05
13 *210:A *213:A1 4.82919e-05
14 *210:A *213:A2 4.82919e-05
15 *210:A *34:36 1.33285e-05
16 *213:B1 *213:A1 7.40656e-05
17 *213:B1 *213:A2 0.000137422
18 *213:B1 *36:6 0.000134324
19 *213:B1 *39:16 2.11084e-05
20 *20:10 *191:A 5.85158e-05
21 *20:10 *191:B 0.000116165
22 *20:10 *192:A 0
23 *20:10 *193:B 0
24 *20:10 *74:25 0
25 *20:36 *196:B 0
26 *20:36 *208:B 2.88519e-05
27 *20:36 *34:12 2.49909e-05
28 *20:36 *34:18 5.23362e-05
29 *20:36 *34:36 5.83121e-06
30 *20:36 *35:12 3.23391e-05
31 *20:36 *80:37 0.000180682
32 *246:A *193:C 4.82919e-05
*RES
1 *191:Y *20:6 3.6 
2 *20:6 *20:10 4.655 
3 *20:10 *192:B 4.135 
4 *20:10 *193:C 4.21 
5 *20:6 *20:36 5.87 
6 *20:36 *213:B1 6.25 
7 *20:36 *210:A 2.395 
*END

*D_NET *21 0.00128626
*CONN
*I *220:A1 I *D sky130_fd_sc_hd__a21o_1
*I *204:A I *D sky130_fd_sc_hd__or4b_2
*I *194:X O *D sky130_fd_sc_hd__and2_1
*CAP
1 *220:A1 0.000237631
2 *204:A 0
3 *194:X 0.000119611
4 *21:12 0.000357242
5 *220:A1 *199:B 4.82919e-05
6 *220:A1 *24:6 0.000239768
7 *220:A1 *30:10 4.99619e-05
8 *21:12 *204:B 7.20473e-05
9 *21:12 *23:34 4.66108e-05
10 *21:12 *24:6 8.23457e-05
11 *21:12 *75:42 3.27519e-05
12 *198:A3 *21:12 0
*RES
1 *194:X *21:12 8.03 
2 *21:12 *204:A 1.6 
3 *21:12 *220:A1 6.205 
*END

*D_NET *22 0.00216187
*CONN
*I *200:A I *D sky130_fd_sc_hd__xnor2_1
*I *205:B2 I *D sky130_fd_sc_hd__a2bb2o_1
*I *195:Y O *D sky130_fd_sc_hd__nand2_1
*CAP
1 *200:A 0.000284322
2 *205:B2 0.000169814
3 *195:Y 0.000196789
4 *22:8 0.000650925
5 *200:A *25:16 0.000188727
6 *205:B2 *204:D_N 0.000140912
7 *205:B2 *25:16 0
8 *205:B2 *30:10 5.20968e-05
9 *205:B2 *75:42 8.18836e-05
10 *22:8 *195:A 4.94457e-05
11 *22:8 *195:B 0.000159632
12 *22:8 *25:16 3.00492e-05
13 *22:8 *75:6 4.60584e-05
14 *22:8 *75:10 9.06961e-05
15 *198:A3 *22:8 2.0514e-05
*RES
1 *195:Y *22:8 5.86 
2 *22:8 *205:B2 9.53 
3 *22:8 *200:A 6.88 
*END

*D_NET *23 0.00395544
*CONN
*I *205:A1_N I *D sky130_fd_sc_hd__a2bb2o_1
*I *204:B I *D sky130_fd_sc_hd__or4b_2
*I *197:D I *D sky130_fd_sc_hd__and4_1
*I *198:B1 I *D sky130_fd_sc_hd__a31o_1
*I *196:X O *D sky130_fd_sc_hd__and2_1
*CAP
1 *205:A1_N 6.86003e-05
2 *204:B 3.60113e-05
3 *197:D 0
4 *198:B1 0.000170325
5 *196:X 0.000209874
6 *23:34 0.000270688
7 *23:25 0.000258036
8 *23:8 0.000472159
9 *198:B1 *190:A 0
10 *198:B1 *191:A 0
11 *198:B1 *193:B 0
12 *198:B1 *198:A1 8.40269e-05
13 *198:B1 *198:A2 7.00889e-06
14 *198:B1 *78:16 0.000160651
15 *198:B1 *78:24 4.82863e-05
16 *204:B *75:42 9.22251e-05
17 *205:A1_N *75:42 0.000136296
18 *23:8 *190:B 4.47209e-05
19 *23:8 *191:A 8.65905e-05
20 *23:8 *191:B 0.000383657
21 *23:8 *66:47 0.000103554
22 *23:8 *74:25 8.8266e-05
23 *23:8 *74:49 9.77926e-05
24 *23:8 *77:6 0.0001249
25 *23:8 *77:32 4.82863e-05
26 *23:25 *197:B 4.66108e-05
27 *23:25 *74:49 4.75753e-05
28 *23:25 *77:32 1.33285e-05
29 *23:25 *78:6 8.52883e-05
30 *23:25 *78:8 8.23457e-05
31 *23:25 *78:16 4.66108e-05
32 *23:34 *204:C 0.000122801
33 *23:34 *24:6 9.38103e-05
34 *23:34 *78:6 2.58336e-05
35 *198:A3 *23:25 1.05984e-05
36 *198:A3 *23:34 0.000196842
37 *249:A *198:B1 1.07797e-05
38 *249:A *23:25 4.82863e-05
39 *19:6 *23:25 1.41165e-05
40 *21:12 *204:B 7.20473e-05
41 *21:12 *23:34 4.66108e-05
*RES
1 *196:X *23:8 8.275 
2 *23:8 *198:B1 8.885 
3 *23:8 *23:25 2.79 
4 *23:25 *197:D 1.6 
5 *23:25 *23:34 5.9 
6 *23:34 *204:B 4.725 
7 *23:34 *205:A1_N 5.235 
*END

*D_NET *24 0.00177043
*CONN
*I *199:A_N I *D sky130_fd_sc_hd__and2b_1
*I *220:B1 I *D sky130_fd_sc_hd__a21o_1
*I *197:X O *D sky130_fd_sc_hd__and4_1
*CAP
1 *199:A_N 4.60965e-05
2 *220:B1 1.85694e-05
3 *197:X 0.000364401
4 *24:6 0.000429067
5 *199:A_N *199:B 7.60965e-05
6 *220:B1 *199:B 9.53428e-06
7 *24:6 *199:B 0.000109625
8 *24:6 *204:C 0.000123955
9 *24:6 *77:63 2.10214e-05
10 *24:6 *78:6 0.000156142
11 *220:A1 *24:6 0.000239768
12 *21:12 *24:6 8.23457e-05
13 *23:34 *24:6 9.38103e-05
*RES
1 *197:X *24:6 9.985 
2 *24:6 *220:B1 1.96 
3 *24:6 *199:A_N 2.74 
*END

*D_NET *25 0.00247806
*CONN
*I *199:B I *D sky130_fd_sc_hd__and2b_1
*I *220:A2 I *D sky130_fd_sc_hd__a21o_1
*I *198:X O *D sky130_fd_sc_hd__a31o_1
*CAP
1 *199:B 0.000230604
2 *220:A2 0
3 *198:X 0.000612371
4 *25:16 0.000842975
5 *199:B *200:B 1.4399e-05
6 *25:16 *195:A 1.34503e-05
7 *25:16 *200:B 0
8 *25:16 *204:D_N 0
9 *25:16 *75:6 8.65961e-05
10 *25:16 *75:10 0.000144798
11 *198:A3 *25:16 7.05395e-05
12 *199:A_N *199:B 7.60965e-05
13 *200:A *25:16 0.000188727
14 *205:B2 *25:16 0
15 *220:A1 *199:B 4.82919e-05
16 *220:B1 *199:B 9.53428e-06
17 *22:8 *25:16 3.00492e-05
18 *24:6 *199:B 0.000109625
*RES
1 *198:X *25:16 15.305 
2 *25:16 *220:A2 1.6 
3 *25:16 *199:B 6.145 
*END

*D_NET *26 0.000405413
*CONN
*I *200:B I *D sky130_fd_sc_hd__xnor2_1
*I *199:X O *D sky130_fd_sc_hd__and2b_1
*CAP
1 *200:B 0.000175252
2 *199:X 0.000175252
3 *200:B *254:A 4.05095e-05
4 *199:B *200:B 1.4399e-05
5 *25:16 *200:B 0
*RES
1 *199:X *200:B 9.72 
*END

*D_NET *27 0.00346982
*CONN
*I *241:A1 I *D sky130_fd_sc_hd__a21oi_1
*I *206:A_N I *D sky130_fd_sc_hd__nand3b_2
*I *207:B1_N I *D sky130_fd_sc_hd__a21bo_1
*I *235:C I *D sky130_fd_sc_hd__and3_1
*I *201:Y O *D sky130_fd_sc_hd__nand2_1
*CAP
1 *241:A1 0
2 *206:A_N 0
3 *207:B1_N 0.000231929
4 *235:C 8.01185e-05
5 *201:Y 0.00025382
6 *27:27 0.000837774
7 *27:19 0.000771894
8 *27:10 0.000499988
9 *207:B1_N *206:C 0.000107655
10 *207:B1_N *207:A1 6.69608e-06
11 *235:C *76:36 4.97406e-05
12 *27:10 *224:A 0
13 *27:10 *235:A 0
14 *27:10 *237:B 0
15 *27:10 *60:10 0
16 *27:10 *80:8 0
17 *27:10 *80:27 0
18 *27:19 *76:36 9.64037e-05
19 *27:27 *206:C 5.18317e-06
20 *27:27 *241:B1 4.66826e-05
21 *27:27 *30:34 8.97248e-05
22 *27:27 *76:36 0.00011577
23 *27:27 *76:47 0.000276441
*RES
1 *201:Y *27:10 9.53 
2 *27:10 *235:C 2.965 
3 *27:10 *27:19 2.865 
4 *27:19 *27:27 13.145 
5 *27:27 *207:B1_N 7.02 
6 *27:27 *206:A_N 3.6 
7 *27:19 *241:A1 1.6 
*END

*D_NET *28 0.00148042
*CONN
*I *205:A2_N I *D sky130_fd_sc_hd__a2bb2o_1
*I *204:C I *D sky130_fd_sc_hd__or4b_2
*I *202:Y O *D sky130_fd_sc_hd__nand2_1
*CAP
1 *205:A2_N 0.000147394
2 *204:C 0.000129847
3 *202:Y 0.000255902
4 *28:6 0.000533143
5 *204:C *211:B 4.48925e-05
6 *205:A2_N *31:10 7.08493e-05
7 *198:A3 *204:C 5.16348e-05
8 *23:34 *204:C 0.000122801
9 *24:6 *204:C 0.000123955
*RES
1 *202:Y *28:6 5.155 
2 *28:6 *204:C 8.885 
3 *28:6 *205:A2_N 4.135 
*END

*D_NET *29 0.000872884
*CONN
*I *205:B1 I *D sky130_fd_sc_hd__a2bb2o_1
*I *204:D_N I *D sky130_fd_sc_hd__or4b_2
*I *203:X O *D sky130_fd_sc_hd__and2_1
*CAP
1 *205:B1 0
2 *204:D_N 8.66449e-05
3 *203:X 0.000122135
4 *29:10 0.00020878
5 *204:D_N *214:C 0
6 *204:D_N *30:10 2.03321e-05
7 *204:D_N *36:14 9.50342e-06
8 *29:10 *30:10 4.28396e-05
9 *29:10 *36:14 0.000118513
10 *29:10 *38:6 0.000123225
11 *205:B2 *204:D_N 0.000140912
12 *25:16 *204:D_N 0
*RES
1 *203:X *29:10 6.12 
2 *29:10 *204:D_N 5.745 
3 *29:10 *205:B1 3.6 
*END

*D_NET *30 0.00353089
*CONN
*I *229:A I *D sky130_fd_sc_hd__and3_1
*I *231:A1 I *D sky130_fd_sc_hd__a21oi_1
*I *230:A I *D sky130_fd_sc_hd__nand3_1
*I *206:B I *D sky130_fd_sc_hd__nand3b_2
*I *207:A1 I *D sky130_fd_sc_hd__a21bo_1
*I *204:X O *D sky130_fd_sc_hd__or4b_2
*CAP
1 *229:A 0.000164766
2 *231:A1 7.55677e-06
3 *230:A 8.93374e-05
4 *206:B 0
5 *207:A1 6.02469e-05
6 *204:X 0.000314338
7 *30:34 0.000499643
8 *30:21 0.00031768
9 *30:10 0.000454281
10 *229:A *229:C 0.000122337
11 *229:A *232:B 4.21973e-05
12 *229:A *239:A2 8.40269e-05
13 *229:A *32:28 1.88904e-05
14 *229:A *32:36 4.92629e-05
15 *229:A *53:25 0.000158066
16 *229:A *56:8 6.52265e-05
17 *231:A1 *32:28 0
18 *30:10 *206:C 3.09164e-05
19 *30:10 *238:A_N 0
20 *30:10 *238:C 0
21 *30:10 *31:10 0.000471287
22 *30:10 *36:14 0
23 *30:10 *41:10 0
24 *30:10 *75:42 0.000165386
25 *30:21 *206:C 0.000153794
26 *30:21 *238:A_N 0
27 *30:21 *33:10 0
28 *30:34 *216:B 0
29 *30:34 *32:28 0
30 *30:34 *33:10 0
31 *204:D_N *30:10 2.03321e-05
32 *205:B2 *30:10 5.20968e-05
33 *207:B1_N *207:A1 6.69608e-06
34 *220:A1 *30:10 4.99619e-05
35 *27:27 *30:34 8.97248e-05
36 *29:10 *30:10 4.28396e-05
*RES
1 *204:X *30:10 11.805 
2 *30:10 *207:A1 4.395 
3 *30:10 *30:21 1.89 
4 *30:21 *206:B 3.6 
5 *30:21 *30:34 4.6125 
6 *30:34 *230:A 4.6275 
7 *30:34 *231:A1 3.8325 
8 *30:34 *229:A 7.4925 
*END

*D_NET *31 0.00171363
*CONN
*I *206:C I *D sky130_fd_sc_hd__nand3b_2
*I *207:A2 I *D sky130_fd_sc_hd__a21bo_1
*I *205:X O *D sky130_fd_sc_hd__a2bb2o_1
*CAP
1 *206:C 6.77953e-05
2 *207:A2 0
3 *205:X 0.000274566
4 *31:10 0.000342361
5 *31:10 *203:A 7.98007e-06
6 *31:10 *203:B 0.000112403
7 *31:10 *75:42 6.88421e-05
8 *205:A2_N *31:10 7.08493e-05
9 *207:B1_N *206:C 0.000107655
10 *27:27 *206:C 5.18317e-06
11 *30:10 *206:C 3.09164e-05
12 *30:10 *31:10 0.000471287
13 *30:21 *206:C 0.000153794
*RES
1 *205:X *31:10 10.2 
2 *31:10 *207:A2 3.6 
3 *31:10 *206:C 5.745 
*END

*D_NET *32 0.00247576
*CONN
*I *229:B I *D sky130_fd_sc_hd__and3_1
*I *231:A2 I *D sky130_fd_sc_hd__a21oi_1
*I *230:B I *D sky130_fd_sc_hd__nand3_1
*I *217:A1 I *D sky130_fd_sc_hd__a21o_1
*I *216:A I *D sky130_fd_sc_hd__and3_1
*I *206:Y O *D sky130_fd_sc_hd__nand3b_2
*CAP
1 *229:B 0.000236141
2 *231:A2 9.51124e-06
3 *230:B 2.2524e-05
4 *217:A1 0
5 *216:A 0.000125675
6 *206:Y 0
7 *32:36 0.00015267
8 *32:28 0.000553235
9 *32:10 0.000216329
10 *32:4 0.000287113
11 *216:A *216:B 1.9415e-05
12 *216:A *216:C 3.74161e-05
13 *216:A *217:B1 8.49205e-05
14 *216:A *53:10 1.08758e-05
15 *229:B *232:B 9.91257e-05
16 *229:B *56:8 9.66106e-05
17 *230:B *239:A2 8.20343e-05
18 *230:B *63:12 5.06989e-05
19 *231:A2 *239:A2 5.12969e-06
20 *231:A2 *56:8 3.50152e-06
21 *32:10 *216:B 2.49909e-05
22 *32:10 *216:C 0
23 *32:10 *53:10 4.29016e-05
24 *32:28 *216:B 1.89685e-05
25 *32:28 *239:A1 6.02123e-05
26 *32:28 *53:23 7.1245e-05
27 *32:36 *239:A2 4.6491e-05
28 *32:36 *63:12 4.98756e-05
29 *229:A *32:28 1.88904e-05
30 *229:A *32:36 4.92629e-05
31 *231:A1 *32:28 0
32 *30:34 *32:28 0
*RES
1 *206:Y *32:4 1.6 
2 *32:4 *32:10 1.86 
3 *32:10 *216:A 3.79 
4 *32:10 *217:A1 1.6 
5 *32:4 *32:28 6.0575 
6 *32:28 *32:36 4.1675 
7 *32:36 *230:B 2.755 
8 *32:36 *231:A2 1.96 
9 *32:28 *229:B 6.9525 
*END

*D_NET *33 0.00130895
*CONN
*I *216:B I *D sky130_fd_sc_hd__and3_1
*I *217:A2 I *D sky130_fd_sc_hd__a21o_1
*I *207:X O *D sky130_fd_sc_hd__a21bo_1
*CAP
1 *216:B 0.000248733
2 *217:A2 0
3 *207:X 0.000201236
4 *33:10 0.000449968
5 *216:B *217:B1 2.8185e-05
6 *216:B *43:6 0.00012657
7 *216:B *53:23 7.47215e-05
8 *33:10 *238:A_N 7.06865e-05
9 *33:10 *53:23 4.54719e-05
10 *216:A *216:B 1.9415e-05
11 *30:21 *33:10 0
12 *30:34 *216:B 0
13 *30:34 *33:10 0
14 *32:10 *216:B 2.49909e-05
15 *32:28 *216:B 1.89685e-05
*RES
1 *207:X *33:10 6.465 
2 *33:10 *217:A2 3.6 
3 *33:10 *216:B 7.335 
*END

*D_NET *34 0.00202725
*CONN
*I *213:A1 I *D sky130_fd_sc_hd__o21ai_1
*I *210:B I *D sky130_fd_sc_hd__or3_1
*I *236:A1 I *D sky130_fd_sc_hd__a21oi_1
*I *226:A I *D sky130_fd_sc_hd__xnor2_1
*I *208:X O *D sky130_fd_sc_hd__and4_1
*CAP
1 *213:A1 0.000118589
2 *210:B 0
3 *236:A1 9.00581e-05
4 *226:A 5.32938e-05
5 *208:X 0.0002647
6 *34:36 0.000149307
7 *34:18 0.000260362
8 *34:12 0.000412428
9 *213:A1 *213:A2 0.000108013
10 *226:A *226:B 1.04302e-05
11 *226:A *37:16 0
12 *236:A1 *226:B 0.000139447
13 *236:A1 *37:16 3.83041e-05
14 *34:12 *79:8 0
15 *34:12 *80:37 0
16 *34:18 *35:12 7.47284e-05
17 *34:18 *80:37 8.87475e-05
18 *210:A *213:A1 4.82919e-05
19 *210:A *34:36 1.33285e-05
20 *213:B1 *213:A1 7.40656e-05
21 *20:36 *34:12 2.49909e-05
22 *20:36 *34:18 5.23362e-05
23 *20:36 *34:36 5.83121e-06
*RES
1 *208:X *34:12 8.645 
2 *34:12 *34:18 6.4 
3 *34:18 *226:A 2.41 
4 *34:18 *236:A1 3.43 
5 *34:12 *34:36 0.45 
6 *34:36 *210:B 1.6 
7 *34:36 *213:A1 4.72 
*END

*D_NET *35 0.0011283
*CONN
*I *213:A2 I *D sky130_fd_sc_hd__o21ai_1
*I *210:C I *D sky130_fd_sc_hd__or3_1
*I *209:Y O *D sky130_fd_sc_hd__nand2_1
*CAP
1 *213:A2 0.000164989
2 *210:C 0
3 *209:Y 0.000173732
4 *35:12 0.000338721
5 *35:12 *202:B 2.50702e-05
6 *35:12 *209:A 2.49909e-05
7 *210:A *213:A2 4.82919e-05
8 *213:A1 *213:A2 0.000108013
9 *213:B1 *213:A2 0.000137422
10 *20:36 *35:12 3.23391e-05
11 *34:18 *35:12 7.47284e-05
*RES
1 *209:Y *35:12 8.375 
2 *35:12 *210:C 1.6 
3 *35:12 *213:A2 8.75 
*END

*D_NET *36 0.00387566
*CONN
*I *219:A1 I *D sky130_fd_sc_hd__a21o_1
*I *215:B1_N I *D sky130_fd_sc_hd__a21bo_1
*I *214:A I *D sky130_fd_sc_hd__nand3_1
*I *210:X O *D sky130_fd_sc_hd__or3_1
*CAP
1 *219:A1 0
2 *215:B1_N 0.000270628
3 *214:A 2.08101e-05
4 *210:X 0.000800916
5 *36:14 0.000621644
6 *36:6 0.00113112
7 *215:B1_N *221:C 0
8 *215:B1_N *46:10 0.000127416
9 *215:B1_N *47:8 0
10 *36:6 *203:A 0.000121643
11 *36:6 *211:B 0.000122797
12 *36:6 *212:A_N 6.07312e-05
13 *36:6 *39:16 0.000122255
14 *36:6 *39:31 3.25591e-05
15 *36:6 *78:75 0.000132509
16 *36:14 *214:C 4.82863e-05
17 *36:14 *45:12 0
18 *204:D_N *36:14 9.50342e-06
19 *213:B1 *36:6 0.000134324
20 *29:10 *36:14 0.000118513
21 *30:10 *36:14 0
*RES
1 *210:X *36:6 12.055 
2 *36:6 *36:14 9.175 
3 *36:14 *214:A 1.96 
4 *36:14 *215:B1_N 10.43 
5 *36:6 *219:A1 1.6 
*END

*D_NET *37 0.00159628
*CONN
*I *212:A_N I *D sky130_fd_sc_hd__and3b_1
*I *236:A2 I *D sky130_fd_sc_hd__a21oi_1
*I *226:B I *D sky130_fd_sc_hd__xnor2_1
*I *211:X O *D sky130_fd_sc_hd__and4_1
*CAP
1 *212:A_N 5.89568e-05
2 *236:A2 0
3 *226:B 7.52541e-05
4 *211:X 0
5 *37:16 0.000392264
6 *37:4 0.000375967
7 *212:A_N *211:B 7.08493e-05
8 *212:A_N *39:16 6.77417e-05
9 *212:A_N *78:64 0.000122801
10 *212:A_N *78:75 4.89295e-05
11 *226:B *60:10 2.11084e-05
12 *37:16 *211:B 0
13 *37:16 *211:D 6.28765e-05
14 *37:16 *60:10 5.06209e-05
15 *226:A *226:B 1.04302e-05
16 *226:A *37:16 0
17 *236:A1 *226:B 0.000139447
18 *236:A1 *37:16 3.83041e-05
19 *36:6 *212:A_N 6.07312e-05
*RES
1 *211:X *37:4 1.6 
2 *37:4 *37:16 9.565 
3 *37:16 *226:B 3.55 
4 *37:16 *236:A2 1.6 
5 *37:4 *212:A_N 4.12 
*END

*D_NET *38 0.00197245
*CONN
*I *215:A1 I *D sky130_fd_sc_hd__a21bo_1
*I *214:B I *D sky130_fd_sc_hd__nand3_1
*I *219:B1 I *D sky130_fd_sc_hd__a21o_1
*I *212:X O *D sky130_fd_sc_hd__and3b_1
*CAP
1 *215:A1 3.80741e-05
2 *214:B 7.63527e-05
3 *219:B1 2.1782e-05
4 *212:X 0.000141137
5 *38:15 0.000170486
6 *38:6 0.000218979
7 *214:B *214:C 0.00015829
8 *214:B *40:8 9.30717e-05
9 *214:B *46:10 0
10 *215:A1 *215:A2 8.40269e-05
11 *215:A1 *39:31 0
12 *215:A1 *40:12 1.61831e-05
13 *215:A1 *45:12 0.000111455
14 *219:B1 *39:16 9.72742e-06
15 *219:B1 *39:31 3.81044e-05
16 *38:6 *39:16 0.000279047
17 *38:6 *39:31 5.14235e-05
18 *38:6 *75:42 0.000122797
19 *38:15 *215:A2 3.57349e-05
20 *38:15 *39:31 0.000100204
21 *38:15 *45:12 8.23457e-05
22 *29:10 *38:6 0.000123225
*RES
1 *212:X *38:6 5.5 
2 *38:6 *219:B1 2.215 
3 *38:6 *38:15 1.485 
4 *38:15 *214:B 7.49 
5 *38:15 *215:A1 3.1 
*END

*D_NET *39 0.00330925
*CONN
*I *215:A2 I *D sky130_fd_sc_hd__a21bo_1
*I *214:C I *D sky130_fd_sc_hd__nand3_1
*I *219:A2 I *D sky130_fd_sc_hd__a21o_1
*I *213:Y O *D sky130_fd_sc_hd__o21ai_1
*CAP
1 *215:A2 4.72616e-05
2 *214:C 0.00010807
3 *219:A2 0
4 *213:Y 0.000574025
5 *39:31 0.000297347
6 *39:16 0.00071604
7 *214:C *40:8 1.07797e-05
8 *214:C *45:12 4.9968e-05
9 *215:A2 *40:12 2.75229e-05
10 *39:16 *203:A 0.000110767
11 *39:16 *75:42 2.83649e-05
12 *39:16 *78:64 0.000122261
13 *39:16 *78:75 0.000168334
14 *204:D_N *214:C 0
15 *212:A_N *39:16 6.77417e-05
16 *213:B1 *39:16 2.11084e-05
17 *214:B *214:C 0.00015829
18 *215:A1 *215:A2 8.40269e-05
19 *215:A1 *39:31 0
20 *219:B1 *39:16 9.72742e-06
21 *219:B1 *39:31 3.81044e-05
22 *36:6 *39:16 0.000122255
23 *36:6 *39:31 3.25591e-05
24 *36:14 *214:C 4.82863e-05
25 *38:6 *39:16 0.000279047
26 *38:6 *39:31 5.14235e-05
27 *38:15 *215:A2 3.57349e-05
28 *38:15 *39:31 0.000100204
*RES
1 *213:Y *39:16 12.475 
2 *39:16 *219:A2 1.6 
3 *39:16 *39:31 3.36 
4 *39:31 *214:C 8.195 
5 *39:31 *215:A2 2.74 
*END

*D_NET *40 0.00173593
*CONN
*I *238:D I *D sky130_fd_sc_hd__and4b_1
*I *243:A1 I *D sky130_fd_sc_hd__a21oi_1
*I *221:A I *D sky130_fd_sc_hd__and3_1
*I *214:Y O *D sky130_fd_sc_hd__nand3_1
*CAP
1 *238:D 7.34236e-05
2 *243:A1 0.000187882
3 *221:A 0
4 *214:Y 9.11017e-05
5 *40:12 0.000416297
6 *40:8 0.000392941
7 *238:D *238:B 2.05864e-05
8 *238:D *239:C1 5.03148e-06
9 *238:D *41:10 0.000106648
10 *238:D *46:10 0
11 *243:A1 *221:C 1.70906e-05
12 *243:A1 *243:A2 3.36985e-05
13 *243:A1 *244:A 8.65961e-05
14 *243:A1 *45:12 8.58339e-06
15 *40:8 *41:10 3.25831e-05
16 *40:8 *45:12 5.12017e-06
17 *40:8 *46:10 0
18 *40:12 *45:12 0.000110793
19 *214:B *40:8 9.30717e-05
20 *214:C *40:8 1.07797e-05
21 *215:A1 *40:12 1.61831e-05
22 *215:A2 *40:12 2.75229e-05
*RES
1 *214:Y *40:8 5.49 
2 *40:8 *40:12 5.9 
3 *40:12 *221:A 1.6 
4 *40:12 *243:A1 4.135 
5 *40:8 *238:D 5.17875 
*END

*D_NET *41 0.00131191
*CONN
*I *216:C I *D sky130_fd_sc_hd__and3_1
*I *217:B1 I *D sky130_fd_sc_hd__a21o_1
*I *215:X O *D sky130_fd_sc_hd__a21bo_1
*CAP
1 *216:C 7.22335e-05
2 *217:B1 2.39063e-05
3 *215:X 0.000253408
4 *41:10 0.000349547
5 *216:C *43:6 6.95497e-05
6 *217:B1 *43:6 5.83121e-06
7 *41:10 *233:B1 0
8 *41:10 *234:B 0
9 *41:10 *238:A_N 0
10 *41:10 *238:C 5.20968e-05
11 *41:10 *239:C1 0.000163185
12 *41:10 *45:12 3.24046e-05
13 *216:A *216:C 3.74161e-05
14 *216:A *217:B1 8.49205e-05
15 *216:B *217:B1 2.8185e-05
16 *238:D *41:10 0.000106648
17 *30:10 *41:10 0
18 *32:10 *216:C 0
19 *40:8 *41:10 3.25831e-05
*RES
1 *215:X *41:10 11.57 
2 *41:10 *217:B1 2.395 
3 *41:10 *216:C 3.265 
*END

*D_NET *42 0.00196275
*CONN
*I *239:A1 I *D sky130_fd_sc_hd__a211o_1
*I *218:A_N I *D sky130_fd_sc_hd__and2b_1
*I *233:B1 I *D sky130_fd_sc_hd__a21oi_1
*I *216:X O *D sky130_fd_sc_hd__and3_1
*CAP
1 *239:A1 0.000516753
2 *218:A_N 2.11983e-05
3 *233:B1 0.000178028
4 *216:X 3.38751e-05
5 *42:10 0.000229681
6 *42:8 0.000581083
7 *218:A_N *43:6 4.82919e-05
8 *233:B1 *234:B 6.52906e-05
9 *233:B1 *239:C1 0
10 *239:A1 *234:B 7.5448e-05
11 *239:A1 *239:C1 1.65192e-05
12 *239:A1 *53:23 7.06865e-05
13 *42:8 *43:6 4.82863e-05
14 *42:10 *234:B 1.7396e-05
15 *42:10 *239:C1 0
16 *32:28 *239:A1 6.02123e-05
17 *41:10 *233:B1 0
*RES
1 *216:X *42:8 4.05 
2 *42:8 *42:10 0.615 
3 *42:10 *233:B1 6.63 
4 *42:10 *218:A_N 4.05 
5 *42:8 *239:A1 15.025 
*END

*D_NET *43 0.000986584
*CONN
*I *233:A1 I *D sky130_fd_sc_hd__a21oi_1
*I *218:B I *D sky130_fd_sc_hd__and2b_1
*I *217:X O *D sky130_fd_sc_hd__a21o_1
*CAP
1 *233:A1 0.000116416
2 *218:B 0
3 *217:X 0.000181409
4 *43:6 0.000297825
5 *233:A1 *222:B 0
6 *233:A1 *234:B 9.24049e-05
7 *216:B *43:6 0.00012657
8 *216:C *43:6 6.95497e-05
9 *217:B1 *43:6 5.83121e-06
10 *218:A_N *43:6 4.82919e-05
11 *42:8 *43:6 4.82863e-05
*RES
1 *217:X *43:6 5.155 
2 *43:6 *218:B 1.6 
3 *43:6 *233:A1 7.94 
*END

*D_NET *44 0.000192876
*CONN
*I *222:A I *D sky130_fd_sc_hd__xor2_1
*I *218:X O *D sky130_fd_sc_hd__and2b_1
*CAP
1 *222:A 9.64378e-05
2 *218:X 9.64378e-05
3 *222:A *256:A 0
*RES
1 *218:X *222:A 4.7 
*END

*D_NET *45 0.00205627
*CONN
*I *238:C I *D sky130_fd_sc_hd__and4b_1
*I *243:A2 I *D sky130_fd_sc_hd__a21oi_1
*I *221:B I *D sky130_fd_sc_hd__and3_1
*I *219:X O *D sky130_fd_sc_hd__a21o_1
*CAP
1 *238:C 8.95878e-05
2 *243:A2 9.54316e-05
3 *221:B 0
4 *219:X 0
5 *45:12 0.0006255
6 *45:6 0.000619656
7 *238:C *238:B 4.82863e-05
8 *238:C *239:C1 2.47313e-05
9 *243:A2 *221:C 1.83194e-05
10 *243:A2 *244:A 4.82919e-05
11 *243:A2 *244:B 0
12 *214:C *45:12 4.9968e-05
13 *215:A1 *45:12 0.000111455
14 *243:A1 *243:A2 3.36985e-05
15 *243:A1 *45:12 8.58339e-06
16 *30:10 *238:C 0
17 *36:14 *45:12 0
18 *38:15 *45:12 8.23457e-05
19 *40:8 *45:12 5.12017e-06
20 *40:12 *45:12 0.000110793
21 *41:10 *238:C 5.20968e-05
22 *41:10 *45:12 3.24046e-05
*RES
1 *219:X *45:6 3.6 
2 *45:6 *45:12 9.005 
3 *45:12 *221:B 1.6 
4 *45:12 *243:A2 3.61 
5 *45:6 *238:C 5.52 
*END

*D_NET *46 0.00258772
*CONN
*I *243:B1 I *D sky130_fd_sc_hd__a21oi_1
*I *221:C I *D sky130_fd_sc_hd__and3_1
*I *238:B I *D sky130_fd_sc_hd__and4b_1
*I *220:X O *D sky130_fd_sc_hd__a21o_1
*CAP
1 *243:B1 0.000272572
2 *221:C 6.05764e-05
3 *238:B 0.000191475
4 *220:X 0.000271643
5 *46:19 0.000624719
6 *46:10 0.000754689
7 *221:C *47:8 4.43871e-06
8 *221:C *47:23 4.31189e-05
9 *238:B *239:C1 1.08032e-05
10 *243:B1 *255:A 0.00012199
11 *214:B *46:10 0
12 *215:B1_N *221:C 0
13 *215:B1_N *46:10 0.000127416
14 *238:C *238:B 4.82863e-05
15 *238:D *238:B 2.05864e-05
16 *238:D *46:10 0
17 *243:A1 *221:C 1.70906e-05
18 *243:A2 *221:C 1.83194e-05
19 *40:8 *46:10 0
*RES
1 *220:X *46:10 10.55 
2 *46:10 *238:B 3.775 
3 *46:10 *46:19 3.21 
4 *46:19 *221:C 6.89 
5 *46:19 *243:B1 9.155 
*END

*D_NET *47 0.00162961
*CONN
*I *222:B I *D sky130_fd_sc_hd__xor2_1
*I *233:A2 I *D sky130_fd_sc_hd__a21oi_1
*I *244:A I *D sky130_fd_sc_hd__nor2_1
*I *221:X O *D sky130_fd_sc_hd__and3_1
*CAP
1 *222:B 0.000140948
2 *233:A2 0.00010242
3 *244:A 0.000164821
4 *221:X 6.80077e-05
5 *47:23 0.000472232
6 *47:8 0.000461692
7 *222:B *234:B 0
8 *244:A *244:B 3.70488e-05
9 *47:8 *255:A 0
10 *47:23 *234:B 0
11 *47:23 *255:A 0
12 P[4] *222:B 0
13 *215:B1_N *47:8 0
14 *221:C *47:8 4.43871e-06
15 *221:C *47:23 4.31189e-05
16 *233:A1 *222:B 0
17 *243:A1 *244:A 8.65961e-05
18 *243:A2 *244:A 4.82919e-05
*RES
1 *221:X *47:8 4.47 
2 *47:8 *244:A 6.585 
3 *47:8 *47:23 3.93 
4 *47:23 *233:A2 5.085 
5 *47:23 *222:B 5.745 
*END

*D_NET *48 0.000145868
*CONN