*SPEF "ieee 1481-1999"
*DESIGN "SARSA_WInd_e8"
*DATE "14:00:06 Tuesday September 16, 2025"
*VENDOR "The OpenROAD Project"
*PROGRAM "OpenROAD"
*VERSION "edf00dff99f6c40d67a30c0e22a8191c5d2ed9d6"
*DESIGN_FLOW "NAME_SCOPE LOCAL" "PIN_CAP NONE"
*DIVIDER /
*DELIMITER :
*BUS_DELIMITER []
*T_UNIT 1 NS
*C_UNIT 1 PF
*R_UNIT 1 OHM
*L_UNIT 1 HENRY

*NAME_MAP
*1 A[0]
*2 A[1]
*3 B[0]
*4 B[1]
*5 P[0]
*6 P[1]
*7 P[2]
*8 net8
*11 net1
*12 net2
*13 net3
*14 net4
*15 net5
*16 net6
*17 net7
*18 pp0
*19 FILLER_0_15
*20 FILLER_0_27
*21 FILLER_0_29
*22 FILLER_0_3
*23 FILLER_0_41
*24 FILLER_0_53
*25 FILLER_0_57
*26 FILLER_0_69
*27 FILLER_1_15
*28 FILLER_1_27
*29 FILLER_1_3
*30 FILLER_1_39
*31 FILLER_1_51
*32 FILLER_1_55
*33 FILLER_1_57
*34 FILLER_1_69
*35 FILLER_2_18
*36 FILLER_2_26
*37 FILLER_2_29
*38 FILLER_2_41
*39 FILLER_2_53
*40 FILLER_2_6
*41 FILLER_2_65
*42 FILLER_2_77
*43 FILLER_3_11
*44 FILLER_3_17
*45 FILLER_3_25
*46 FILLER_3_3
*47 FILLER_3_31
*48 FILLER_3_43
*49 FILLER_3_55
*50 FILLER_3_57
*51 FILLER_3_69
*52 FILLER_4_10
*53 FILLER_4_18
*54 FILLER_4_26
*55 FILLER_4_29
*56 FILLER_4_41
*57 FILLER_4_53
*58 FILLER_4_6
*59 FILLER_4_65
*60 FILLER_5_17
*61 FILLER_5_29
*62 FILLER_5_41
*63 FILLER_5_53
*64 FILLER_5_57
*65 FILLER_5_6
*66 FILLER_5_69
*67 FILLER_6_19
*68 FILLER_6_27
*69 FILLER_6_29
*70 FILLER_6_41
*71 FILLER_6_53
*72 FILLER_6_65
*73 FILLER_6_7
*74 FILLER_6_77
*75 FILLER_7_18
*76 FILLER_7_30
*77 FILLER_7_42
*78 FILLER_7_54
*79 FILLER_7_57
*80 FILLER_7_6
*81 FILLER_7_69
*82 FILLER_8_15
*83 FILLER_8_27
*84 FILLER_8_29
*85 FILLER_8_3
*86 FILLER_8_41
*87 FILLER_8_53
*88 FILLER_8_65
*89 FILLER_8_77
*90 FILLER_9_15
*91 FILLER_9_27
*92 FILLER_9_29
*93 FILLER_9_3
*94 FILLER_9_41
*95 FILLER_9_53
*96 FILLER_9_57
*97 FILLER_9_69
*98 PHY_EDGE_ROW_0_Left_10
*99 PHY_EDGE_ROW_0_Right_0
*100 PHY_EDGE_ROW_1_Left_11
*101 PHY_EDGE_ROW_1_Right_1
*102 PHY_EDGE_ROW_2_Left_12
*103 PHY_EDGE_ROW_2_Right_2
*104 PHY_EDGE_ROW_3_Left_13
*105 PHY_EDGE_ROW_3_Right_3
*106 PHY_EDGE_ROW_4_Left_14
*107 PHY_EDGE_ROW_4_Right_4
*108 PHY_EDGE_ROW_5_Left_15
*109 PHY_EDGE_ROW_5_Right_5
*110 PHY_EDGE_ROW_6_Left_16
*111 PHY_EDGE_ROW_6_Right_6
*112 PHY_EDGE_ROW_7_Left_17
*113 PHY_EDGE_ROW_7_Right_7
*114 PHY_EDGE_ROW_8_Left_18
*115 PHY_EDGE_ROW_8_Right_8
*116 PHY_EDGE_ROW_9_Left_19
*117 PHY_EDGE_ROW_9_Right_9
*118 SARSA_WInd_e8_8
*119 TAP_TAPCELL_ROW_0_20
*120 TAP_TAPCELL_ROW_0_21
*121 TAP_TAPCELL_ROW_1_22
*122 TAP_TAPCELL_ROW_2_23
*123 TAP_TAPCELL_ROW_3_24
*124 TAP_TAPCELL_ROW_4_25
*125 TAP_TAPCELL_ROW_5_26
*126 TAP_TAPCELL_ROW_6_27
*127 TAP_TAPCELL_ROW_7_28
*128 TAP_TAPCELL_ROW_8_29
*129 TAP_TAPCELL_ROW_9_30
*130 TAP_TAPCELL_ROW_9_31
*131 _0_
*132 _1_
*133 _2_
*134 _4_
*135 input1
*136 input2
*137 input3
*138 input4
*139 output5
*140 output6
*141 output7

*PORTS
A[0] I
A[1] I
B[0] I
B[1] I
P[0] O
P[1] O
P[2] O
P[3] O

*D_NET *1 0.000618322
*CONN
*P A[0] I
*I *135:A I *D sky130_fd_sc_hd__clkbuf_1
*CAP
1 A[0] 0.000295572
2 *135:A 0.000295572
3 *135:A *136:A 2.71788e-05
*RES
1 A[0] *135:A 20.7838 
*END

*D_NET *2 0.000699525
*CONN
*P A[1] I
*I *136:A I *D sky130_fd_sc_hd__clkbuf_1
*CAP
1 A[1] 0.000321177
2 *136:A 0.000321177
3 *136:A *138:A 2.99915e-05
4 *135:A *136:A 2.71788e-05
*RES
1 A[1] *136:A 21.6946 
*END

*D_NET *3 0.000574322
*CONN
*P B[0] I
*I *137:A I *D sky130_fd_sc_hd__clkbuf_1
*CAP
1 B[0] 0.000275863
2 *137:A 0.000275863
3 *137:A P[2] 2.25951e-05
*RES
1 B[0] *137:A 20.4803 
*END

*D_NET *4 0.000670164
*CONN
*P B[1] I
*I *138:A I *D sky130_fd_sc_hd__clkbuf_1
*CAP
1 B[1] 0.000305702
2 *138:A 0.000305702
3 *138:A P[2] 2.87684e-05
4 *136:A *138:A 2.99915e-05
*RES
1 B[1] *138:A 21.391 
*END

*D_NET *5 0.000640218
*CONN
*P P[0] O
*I *139:X O *D sky130_fd_sc_hd__buf_2
*CAP
1 P[0] 0.000242298
2 *139:X 0.000242298
3 P[0] P[1] 9.28756e-05
4 P[0] *139:A 6.27457e-05
*RES
1 *139:X P[0] 19.4092 
*END

*D_NET *6 0.000572941
*CONN
*P P[1] O
*I *140:X O *D sky130_fd_sc_hd__buf_2
*CAP
1 P[1] 0.000197166
2 *140:X 0.000197166
3 P[1] P[3] 8.57347e-05
4 P[0] P[1] 9.28756e-05
*RES
1 *140:X P[1] 18.8021 
*END

*D_NET *7 0.000523471
*CONN
*P P[2] O
*I *141:X O *D sky130_fd_sc_hd__buf_2
*CAP
1 P[2] 0.000231252
2 *141:X 0.000231252
3 P[2] *141:A 9.60337e-06
4 *137:A P[2] 2.25951e-05
5 *138:A P[2] 2.87684e-05
*RES
1 *141:X P[2] 18.1949 
*END

*D_NET *8 0.000498111
*CONN
*P P[3] O
*I *118:LO O *D sky130_fd_sc_hd__conb_1
*CAP
1 P[3] 0.000206188
2 *118:LO 0.000206188
3 P[1] P[3] 8.57347e-05
*RES
1 *118:LO P[3] 18.73 
*END

*D_NET *11 0.000735471
*CONN
*I *133:B I *D sky130_fd_sc_hd__and2_1
*I *135:X O *D sky130_fd_sc_hd__clkbuf_1
*CAP
1 *133:B 0.00034012
2 *135:X 0.00034012
3 *133:B *133:A 5.52302e-05
*RES
1 *135:X *133:B 33.3679 
*END

*D_NET *12 0.00107232
*CONN
*I *131:A I *D sky130_fd_sc_hd__and2_1
*I *132:A I *D sky130_fd_sc_hd__xor2_1
*I *136:X O *D sky130_fd_sc_hd__clkbuf_1
*CAP
1 *131:A 0.000150624
2 *132:A 2.74215e-05
3 *136:X 0.00023483
4 *12:8 0.000412875
5 *131:A *131:B 5.52302e-05
6 *131:A *132:B 0.000143804
7 *131:A *16:12 0
8 *132:A *132:B 3.34295e-05
9 *132:A *133:A 1.41029e-05
*RES
1 *136:X *12:8 17.2107 
2 *12:8 *132:A 14.5321 
3 *12:8 *131:A 17.1036 
*END

*D_NET *13 0.00173298
*CONN
*I *133:A I *D sky130_fd_sc_hd__and2_1
*I *137:X O *D sky130_fd_sc_hd__clkbuf_1
*CAP
1 *133:A 0.000731617
2 *137:X 0.000731617
3 *133:A *132:B 0.000200413
4 *133:A *141:A 0
5 *132:A *133:A 1.41029e-05
6 *133:B *133:A 5.52302e-05
*RES
1 *137:X *133:A 39.9571 
*END

*D_NET *14 0.00114483
*CONN
*I *131:B I *D sky130_fd_sc_hd__and2_1
*I *132:B I *D sky130_fd_sc_hd__xor2_1
*I *138:X O *D sky130_fd_sc_hd__clkbuf_1
*CAP
1 *131:B 4.68968e-05
2 *132:B 5.90476e-05
3 *138:X 0.000173748
4 *14:8 0.000279692
5 *131:B *141:A 6.05161e-06
6 *132:B *16:12 0
7 *14:8 *141:A 0.000146513
8 *131:A *131:B 5.52302e-05
9 *131:A *132:B 0.000143804
10 *132:A *132:B 3.34295e-05
11 *133:A *132:B 0.000200413
*RES
1 *138:X *14:8 13.0321 
2 *14:8 *132:B 20.8536 
3 *14:8 *131:B 10.2464 
*END

*D_NET *15 0.0028918
*CONN
*I *139:A I *D sky130_fd_sc_hd__buf_2
*I *134:X O *D sky130_fd_sc_hd__clkbuf_1
*CAP
1 *139:A 0.00141453
2 *134:X 0.00141453
3 P[0] *139:A 6.27457e-05
*RES
1 *134:X *139:A 49.8857 
*END

*D_NET *16 0.00323391
*CONN
*I *140:A I *D sky130_fd_sc_hd__buf_2
*I *132:X O *D sky130_fd_sc_hd__xor2_1
*CAP
1 *140:A 0
2 *132:X 0.00161695
3 *16:12 0.00161695
4 *131:A *16:12 0
5 *132:B *16:12 0
*RES
1 *132:X *16:12 45.0143 
2 *16:12 *140:A 9.3 
*END

*D_NET *17 0.000737636
*CONN
*I *141:A I *D sky130_fd_sc_hd__buf_2
*I *131:X O *D sky130_fd_sc_hd__and2_1
*CAP
1 *141:A 0.000287734
2 *131:X 0.000287734
3 P[2] *141:A 9.60337e-06
4 *131:B *141:A 6.05161e-06
5 *133:A *141:A 0
6 *14:8 *141:A 0.000146513
*RES
1 *131:X *141:A 31.8321 
*END

*D_NET *18 0.000601439
*CONN
*I *134:A I *D sky130_fd_sc_hd__clkbuf_1
*I *133:X O *D sky130_fd_sc_hd__and2_1
*CAP
1 *134:A 0.00030072
2 *133:X 0.00030072
*RES
1 *133:X *134:A 23.6536 
*END
