*SPEF "ieee 1481-1999"
*DESIGN "mult4_SarsaNada_e6_SARSA_RUIDO_e9_SARSA_RUIDO_e9_SARSA_RUIDO_e9"
*DATE "18:49:16 Tuesday September 16, 2025"
*VENDOR "The OpenROAD Project"
*PROGRAM "OpenROAD"
*VERSION "edf00dff99f6c40d67a30c0e22a8191c5d2ed9d6"
*DESIGN_FLOW "NAME_SCOPE LOCAL" "PIN_CAP NONE"
*DIVIDER /
*DELIMITER :
*BUS_DELIMITER []
*T_UNIT 1 NS
*C_UNIT 1 PF
*R_UNIT 1 OHM
*L_UNIT 1 HENRY

*NAME_MAP
*1 A[0]
*2 A[1]
*3 A[2]
*4 A[3]
*5 B[0]
*6 B[1]
*7 B[2]
*8 B[3]
*9 P[0]
*10 P[1]
*11 P[2]
*12 P[3]
*13 P[4]
*14 P[5]
*15 P[6]
*16 P[7]
*19 _000_
*20 _001_
*21 _002_
*22 _003_
*23 _004_
*24 _005_
*25 _006_
*26 _007_
*27 _008_
*28 _009_
*29 _010_
*30 _011_
*31 _012_
*32 _013_
*33 _014_
*34 _015_
*35 _016_
*36 _017_
*37 _018_
*38 _019_
*39 _020_
*40 _021_
*41 _022_
*42 _023_
*43 _024_
*44 _025_
*45 _026_
*46 _027_
*47 _028_
*48 _029_
*49 _030_
*50 _031_
*51 _032_
*52 _033_
*53 _034_
*54 _035_
*55 _036_
*56 _037_
*57 _038_
*58 _039_
*59 _040_
*60 _041_
*61 _042_
*62 _043_
*63 _044_
*64 _045_
*65 _046_
*66 net1
*67 net10
*68 net11
*69 net12
*70 net13
*71 net14
*72 net15
*73 net16
*74 net2
*75 net3
*76 net4
*77 net5
*78 net6
*79 net7
*80 net8
*81 net9
*82 FILLER_0_11
*83 FILLER_0_27
*84 FILLER_0_3
*85 FILLER_0_54
*86 FILLER_0_66
*87 FILLER_0_78
*88 FILLER_1_22
*89 FILLER_1_3
*90 FILLER_1_35
*91 FILLER_1_48
*92 FILLER_1_64
*93 FILLER_1_76
*94 FILLER_1_80
*95 FILLER_1_9
*96 FILLER_2_13
*97 FILLER_2_25
*98 FILLER_2_3
*99 FILLER_2_37
*100 FILLER_2_42
*101 FILLER_2_49
*102 FILLER_2_61
*103 FILLER_3_20
*104 FILLER_3_50
*105 FILLER_3_57
*106 FILLER_3_61
*107 FILLER_3_68
*108 FILLER_3_80
*109 FILLER_4_10
*110 FILLER_4_22
*111 FILLER_4_29
*112 FILLER_4_37
*113 FILLER_4_45
*114 FILLER_4_53
*115 FILLER_4_74
*116 FILLER_4_80
*117 FILLER_5_11
*118 FILLER_5_21
*119 FILLER_5_3
*120 FILLER_5_41
*121 FILLER_5_53
*122 FILLER_5_57
*123 FILLER_5_63
*124 FILLER_5_67
*125 FILLER_6_13
*126 FILLER_6_29
*127 FILLER_6_33
*128 FILLER_6_43
*129 FILLER_6_62
*130 FILLER_6_74
*131 FILLER_7_21
*132 FILLER_7_3
*133 FILLER_7_33
*134 FILLER_7_47
*135 FILLER_7_55
*136 FILLER_7_57
*137 FILLER_7_64
*138 FILLER_7_75
*139 FILLER_7_9
*140 FILLER_8_18
*141 FILLER_8_26
*142 FILLER_8_29
*143 FILLER_8_3
*144 FILLER_8_60
*145 FILLER_8_72
*146 FILLER_8_80
*147 FILLER_9_13
*148 FILLER_9_21
*149 FILLER_9_29
*150 FILLER_9_38
*151 FILLER_9_53
*152 FILLER_9_57
*153 FILLER_9_63
*154 FILLER_9_7
*155 FILLER_9_75
*156 PHY_EDGE_ROW_0_Left_10
*157 PHY_EDGE_ROW_0_Right_0
*158 PHY_EDGE_ROW_1_Left_11
*159 PHY_EDGE_ROW_1_Right_1
*160 PHY_EDGE_ROW_2_Left_12
*161 PHY_EDGE_ROW_2_Right_2
*162 PHY_EDGE_ROW_3_Left_13
*163 PHY_EDGE_ROW_3_Right_3
*164 PHY_EDGE_ROW_4_Left_14
*165 PHY_EDGE_ROW_4_Right_4
*166 PHY_EDGE_ROW_5_Left_15
*167 PHY_EDGE_ROW_5_Right_5
*168 PHY_EDGE_ROW_6_Left_16
*169 PHY_EDGE_ROW_6_Right_6
*170 PHY_EDGE_ROW_7_Left_17
*171 PHY_EDGE_ROW_7_Right_7
*172 PHY_EDGE_ROW_8_Left_18
*173 PHY_EDGE_ROW_8_Right_8
*174 PHY_EDGE_ROW_9_Left_19
*175 PHY_EDGE_ROW_9_Right_9
*176 TAP_TAPCELL_ROW_0_20
*177 TAP_TAPCELL_ROW_0_21
*178 TAP_TAPCELL_ROW_1_22
*179 TAP_TAPCELL_ROW_2_23
*180 TAP_TAPCELL_ROW_3_24
*181 TAP_TAPCELL_ROW_4_25
*182 TAP_TAPCELL_ROW_5_26
*183 TAP_TAPCELL_ROW_6_27
*184 TAP_TAPCELL_ROW_7_28
*185 TAP_TAPCELL_ROW_8_29
*186 TAP_TAPCELL_ROW_9_30
*187 TAP_TAPCELL_ROW_9_31
*188 _047_
*189 _048_
*190 _049_
*191 _050_
*192 _051_
*193 _052_
*194 _053_
*195 _054_
*196 _055_
*197 _056_
*198 _057_
*199 _058_
*200 _059_
*201 _060_
*202 _061_
*203 _062_
*204 _063_
*205 _064_
*206 _065_
*207 _066_
*208 _067_
*209 _068_
*210 _069_
*211 _070_
*212 _071_
*213 _072_
*214 _073_
*215 _074_
*216 _075_
*217 _076_
*218 _077_
*219 _078_
*220 _079_
*221 _080_
*222 _081_
*223 _082_
*224 _083_
*225 _084_
*226 _085_
*227 _086_
*228 _087_
*229 _088_
*230 _089_
*231 _090_
*232 _091_
*233 _092_
*234 _093_
*235 _094_
*236 _095_
*237 _096_
*238 _097_
*239 _098_
*240 _099_
*241 _100_
*242 _101_
*243 input1
*244 input2
*245 input3
*246 input4
*247 input5
*248 input6
*249 input7
*250 input8
*251 output10
*252 output11
*253 output12
*254 output13
*255 output14
*256 output15
*257 output16
*258 output9

*PORTS
A[0] I
A[1] I
A[2] I
A[3] I
B[0] I
B[1] I
B[2] I
B[3] I
P[0] O
P[1] O
P[2] O
P[3] O
P[4] O
P[5] O
P[6] O
P[7] O

*D_NET *1 0.000896342
*CONN
*P A[0] I
*I *243:A I *D sky130_fd_sc_hd__dlymetal6s2s_1
*CAP
1 A[0] 0.000402467
2 *243:A 0.000402467
3 *243:A *244:A 5.52302e-05
4 *243:A *66:12 4.46186e-06
5 *243:A *74:12 3.17163e-05
*RES
1 A[0] *243:A 21.8357 
*END

*D_NET *2 0.00153312
*CONN
*P A[1] I
*I *244:A I *D sky130_fd_sc_hd__clkbuf_2
*CAP
1 A[1] 0.000444222
2 *244:A 0.000444222
3 *244:A P[0] 0
4 *244:A *66:12 0.00010096
5 *244:A *66:26 0.000129515
6 *244:A *74:12 0.000358971
7 *243:A *244:A 5.52302e-05
*RES
1 A[1] *244:A 24.4071 
*END

*D_NET *3 0.000523751
*CONN
*P A[2] I
*I *245:A I *D sky130_fd_sc_hd__dlymetal6s2s_1
*CAP
1 A[2] 0.00020137
2 *245:A 0.00020137
3 *245:A *246:A 7.67105e-05
4 *245:A *249:A 4.42999e-05
5 *245:A *75:10 0
*RES
1 A[2] *245:A 18.73 
*END

*D_NET *4 0.0015434
*CONN
*P A[3] I
*I *246:A I *D sky130_fd_sc_hd__buf_1
*CAP
1 A[3] 0.000679043
2 *246:A 0.000679043
3 *246:A P[7] 9.54485e-05
4 *246:A *80:73 1.31511e-05
5 *245:A *246:A 7.67105e-05
*RES
1 A[3] *246:A 19.5074 
*END

*D_NET *5 0.00128587
*CONN
*P B[0] I
*I *247:A I *D sky130_fd_sc_hd__dlymetal6s2s_1
*CAP
1 B[0] 0.000518158
2 *247:A 0.000518158
3 *247:A P[0] 0
4 *247:A *201:A 2.51981e-05
5 *247:A *248:A 0
6 *247:A *74:25 5.33614e-05
7 *247:A *74:36 5.83304e-05
8 *247:A *74:55 9.30022e-05
9 *247:A *77:18 1.96658e-05
*RES
1 B[0] *247:A 24.3893 
*END

*D_NET *6 0.00160469
*CONN
*P B[1] I
*I *248:A I *D sky130_fd_sc_hd__clkbuf_2
*CAP
1 B[1] 0.0007136
2 *248:A 0.0007136
3 *248:A P[1] 0
4 *248:A *199:A 5.52302e-05
5 *248:A *35:29 2.89114e-05
6 *248:A *78:8 6.54052e-05
7 *248:A *78:12 2.79387e-05
8 *247:A *248:A 0
*RES
1 B[1] *248:A 27.05 
*END

*D_NET *7 0.00102263
*CONN
*P B[2] I
*I *249:A I *D sky130_fd_sc_hd__buf_1
*CAP
1 B[2] 0.000387387
2 *249:A 0.000387387
3 *249:A *200:A 0
4 *249:A *250:A 2.87684e-05
5 *249:A *28:6 3.4879e-05
6 *249:A *79:8 0.000139913
7 *249:A *79:10 0
8 *245:A *249:A 4.42999e-05
*RES
1 B[2] *249:A 23.2989 
*END

*D_NET *8 0.000663066
*CONN
*P B[3] I
*I *250:A I *D sky130_fd_sc_hd__dlymetal6s2s_1
*CAP
1 B[3] 0.000317149
2 *250:A 0.000317149
3 *249:A *250:A 2.87684e-05
*RES
1 B[3] *250:A 21.0874 
*END

*D_NET *9 0.00140786
*CONN
*P P[0] O
*I *258:X O *D sky130_fd_sc_hd__buf_2
*CAP
1 P[0] 0.000643302
2 *258:X 0.000643302
3 P[0] *208:A 6.63007e-05
4 P[0] *24:38 5.49553e-05
5 *244:A P[0] 0
6 *247:A P[0] 0
*RES
1 *258:X P[0] 27.2643 
*END

*D_NET *10 0.00180488
*CONN
*P P[1] O
*I *251:X O *D sky130_fd_sc_hd__buf_2
*CAP
1 P[1] 0.000679885
2 *251:X 0.000679885
3 P[1] *191:A2 2.51343e-06
4 P[1] *191:B1 2.84398e-05
5 P[1] *192:A 0.000173328
6 P[1] *192:B 0.000109918
7 P[1] *251:A 3.18676e-05
8 P[1] *20:6 9.90431e-05
9 *248:A P[1] 0
*RES
1 *251:X P[1] 27.3714 
*END

*D_NET *11 0.000506479
*CONN
*P P[2] O
*I *252:X O *D sky130_fd_sc_hd__buf_2
*CAP
1 P[2] 0.00025324
2 *252:X 0.00025324
*RES
1 *252:X P[2] 18.4985 
*END

*D_NET *12 0.000564678
*CONN
*P P[3] O
*I *253:X O *D sky130_fd_sc_hd__buf_2
*CAP
1 P[3] 0.000235928
2 *253:X 0.000235928
3 P[3] P[4] 8.32191e-05
4 P[3] *253:A 9.60337e-06
5 P[3] *49:10 0
*RES
1 *253:X P[3] 18.267 
*END

*D_NET *13 0.000497189
*CONN
*P P[4] O
*I *254:X O *D sky130_fd_sc_hd__buf_2
*CAP
1 P[4] 0.000206985
2 *254:X 0.000206985
3 P[4] *49:10 0
4 P[3] P[4] 8.32191e-05
*RES
1 *254:X P[4] 18.1949 
*END

*D_NET *14 0.000951893
*CONN
*P P[5] O
*I *255:X O *D sky130_fd_sc_hd__buf_2
*CAP
1 P[5] 0.000475946
2 *255:X 0.000475946
*RES
1 *255:X P[5] 23.2643 
*END

*D_NET *15 0.000951893
*CONN
*P P[6] O
*I *256:X O *D sky130_fd_sc_hd__buf_2
*CAP
1 P[6] 0.000475946
2 *256:X 0.000475946
*RES
1 *256:X P[6] 23.2643 
*END

*D_NET *16 0.000630011
*CONN
*P P[7] O
*I *257:X O *D sky130_fd_sc_hd__buf_2
*CAP
1 P[7] 0.000246486
2 *257:X 0.000246486
3 P[7] *257:A 4.15914e-05
4 *246:A P[7] 9.54485e-05
*RES
1 *257:X P[7] 19.4092 
*END

*D_NET *19 0.000593274
*CONN
*I *189:B I *D sky130_fd_sc_hd__and2_1
*I *188:X O *D sky130_fd_sc_hd__a21bo_1
*CAP
1 *189:B 0.00022618
2 *188:X 0.00022618
3 *189:B *188:A1 7.83569e-05
4 *189:B *189:A 1.02504e-05
5 *189:B *66:12 0
6 *189:B *66:26 5.23057e-05
*RES
1 *188:X *189:B 31.3143 
*END

*D_NET *20 0.00315719
*CONN
*I *192:A I *D sky130_fd_sc_hd__and2_1
*I *209:A I *D sky130_fd_sc_hd__or3_1
*I *196:C I *D sky130_fd_sc_hd__and4_1
*I *212:B1 I *D sky130_fd_sc_hd__o21ai_1
*I *197:A3 I *D sky130_fd_sc_hd__a31o_1
*I *190:Y O *D sky130_fd_sc_hd__nand4_2
*CAP
1 *192:A 0.00016502
2 *209:A 0.00010363
3 *196:C 0
4 *212:B1 0.000152608
5 *197:A3 0
6 *190:Y 0.000333462
7 *20:21 0.000253801
8 *20:12 0.000101194
9 *20:10 0.000199584
10 *20:6 0.000594436
11 *209:A *26:8 6.32633e-05
12 *209:A *36:12 0.000123295
13 *209:A *78:8 0
14 *212:B1 *25:10 0
15 *212:B1 *26:8 0
16 *20:6 *191:A1 2.28598e-05
17 *20:6 *191:A2 2.87555e-06
18 *20:6 *191:B1 0.000311088
19 *20:10 *196:A 4.34543e-05
20 *20:10 *197:A1 7.05143e-06
21 *20:10 *78:36 6.2589e-06
22 *20:21 *196:A 0.000102207
23 *20:21 *196:B 0.000274294
24 *20:21 *196:D 2.44318e-05
25 P[1] *192:A 0.000173328
26 P[1] *20:6 9.90431e-05
*RES
1 *190:Y *20:6 13.9429 
2 *20:6 *20:10 6.14286 
3 *20:10 *20:12 4.5 
4 *20:12 *197:A3 9.3 
5 *20:12 *20:21 3.42857 
6 *20:21 *212:B1 20.8536 
7 *20:21 *196:C 9.3 
8 *20:10 *209:A 16.3536 
9 *20:6 *192:A 20.8 
*END

*D_NET *21 0.000449759
*CONN
*I *192:B I *D sky130_fd_sc_hd__and2_1
*I *191:X O *D sky130_fd_sc_hd__a22o_1
*CAP
1 *192:B 0.000160036
2 *191:X 0.000160036
3 *192:B *191:A2 1.97695e-05
4 P[1] *192:B 0.000109918
*RES
1 *191:X *192:B 22.0464 
*END

*D_NET *22 0.00166752
*CONN
*I *220:A1 I *D sky130_fd_sc_hd__a21o_1
*I *203:A I *D sky130_fd_sc_hd__or4b_2
*I *193:X O *D sky130_fd_sc_hd__and2_1
*CAP
1 *220:A1 0.000325666
2 *203:A 0.000258622
3 *193:X 0
4 *22:4 0.000584289
5 *203:A *193:A 0.000143375
6 *203:A *203:B 1.32056e-05
7 *203:A *203:C 2.61505e-05
8 *203:A *29:14 3.99614e-06
9 *220:A1 *220:A2 0.000312215
*RES
1 *193:X *22:4 9.3 
2 *22:4 *203:A 13.8714 
3 *22:4 *220:A1 15.6036 
*END

*D_NET *23 0.00423313
*CONN
*I *199:A I *D sky130_fd_sc_hd__xnor2_1
*I *204:B2 I *D sky130_fd_sc_hd__a2bb2o_1
*I *194:Y O *D sky130_fd_sc_hd__nand2_1
*CAP
1 *199:A 0.000915655
2 *204:B2 0.000420326
3 *194:Y 0
4 *23:4 0.00133598
5 *199:A *198:B 0.000163469
6 *199:A *199:B 0.00010096
7 *199:A *212:A1 0.000267377
8 *199:A *212:A2 1.74352e-05
9 *199:A *35:29 0.000144514
10 *199:A *77:40 6.05161e-06
11 *204:B2 *188:A1 4.25523e-05
12 *204:B2 *202:B 0.00019484
13 *204:B2 *24:14 2.26424e-05
14 *204:B2 *30:12 0.000125731
15 *204:B2 *77:40 2.35903e-05
16 *204:B2 *77:48 0.000374133
17 *204:B2 *78:74 2.26424e-05
18 *248:A *199:A 5.52302e-05
*RES
1 *194:Y *23:4 9.3 
2 *23:4 *204:B2 25.6929 
3 *23:4 *199:A 23.425 
*END

*D_NET *24 0.0054674
*CONN
*I *196:D I *D sky130_fd_sc_hd__and4_1
*I *197:B1 I *D sky130_fd_sc_hd__a31o_1
*I *204:A1_N I *D sky130_fd_sc_hd__a2bb2o_1
*I *203:B I *D sky130_fd_sc_hd__or4b_2
*I *195:X O *D sky130_fd_sc_hd__and2_1
*CAP
1 *196:D 0.000234819
2 *197:B1 0
3 *204:A1_N 5.99914e-05
4 *203:B 0.000298839
5 *195:X 0.000211655
6 *24:38 0.00052051
7 *24:14 0.000624756
8 *24:6 0.000763272
9 *196:D *196:B 0.000331085
10 *196:D *36:12 0.00010096
11 *196:D *74:76 2.88484e-05
12 *203:B *203:C 2.8369e-05
13 *203:B *203:D_N 0.000227019
14 *203:B *204:A2_N 9.35114e-06
15 *204:A1_N *202:B 4.73656e-05
16 *204:A1_N *203:D_N 9.83442e-05
17 *204:A1_N *204:A2_N 5.65955e-05
18 *24:6 *201:B 0.000125547
19 *24:6 *80:16 0.000315158
20 *24:14 *188:A1 1.69115e-05
21 *24:14 *201:B 8.01789e-05
22 *24:14 *202:B 0.000149911
23 *24:14 *208:A 5.59013e-05
24 *24:38 *201:A 0.000137347
25 *24:38 *201:B 0.000141734
26 *24:38 *36:12 0.00015673
27 *24:38 *74:76 0.000502563
28 *24:38 *77:8 2.84026e-05
29 P[0] *24:38 5.49553e-05
30 *203:A *203:B 1.32056e-05
31 *204:B2 *24:14 2.26424e-05
32 *20:21 *196:D 2.44318e-05
*RES
1 *195:X *24:6 13.5321 
2 *24:6 *24:14 9.83929 
3 *24:14 *203:B 17.6214 
4 *24:14 *204:A1_N 15.4786 
5 *24:6 *24:38 8.35714 
6 *24:38 *197:B1 9.3 
7 *24:38 *196:D 14.675 
*END

*D_NET *25 0.000772608
*CONN
*I *220:B1 I *D sky130_fd_sc_hd__a21o_1
*I *198:A_N I *D sky130_fd_sc_hd__and2b_1
*I *196:X O *D sky130_fd_sc_hd__and4_1
*CAP
1 *220:B1 0.000206688
2 *198:A_N 0
3 *196:X 0.000179616
4 *25:10 0.000386304
5 *220:B1 *220:A2 0
6 *220:B1 *40:8 0
7 *212:B1 *25:10 0
*RES
1 *196:X *25:10 16.2821 
2 *25:10 *198:A_N 13.8 
3 *25:10 *220:B1 16.8893 
*END

*D_NET *26 0.00206452
*CONN
*I *220:A2 I *D sky130_fd_sc_hd__a21o_1
*I *198:B I *D sky130_fd_sc_hd__and2b_1
*I *197:X O *D sky130_fd_sc_hd__a31o_1
*CAP
1 *220:A2 0.000227608
2 *198:B 0.000258949
3 *197:X 0.000129491
4 *26:8 0.000616048
5 *198:B *212:A2 0.000142856
6 *220:A2 *37:10 0.000150618
7 *220:A2 *78:66 0
8 *26:8 *78:66 0
9 *199:A *198:B 0.000163469
10 *209:A *26:8 6.32633e-05
11 *212:B1 *26:8 0
12 *220:A1 *220:A2 0.000312215
13 *220:B1 *220:A2 0
*RES
1 *197:X *26:8 16.05 
2 *26:8 *198:B 18.8536 
3 *26:8 *220:A2 19.05 
*END

*D_NET *27 0.000171741
*CONN
*I *199:B I *D sky130_fd_sc_hd__xnor2_1
*I *198:X O *D sky130_fd_sc_hd__and2b_1
*CAP
1 *199:B 3.53903e-05
2 *198:X 3.53903e-05
3 *199:A *199:B 0.00010096
*RES
1 *198:X *199:B 19.5464 
*END

*D_NET *28 0.00356657
*CONN
*I *205:B1_N I *D sky130_fd_sc_hd__a21bo_1
*I *206:A_N I *D sky130_fd_sc_hd__nand3b_2
*I *234:C I *D sky130_fd_sc_hd__and3_1
*I *239:A1 I *D sky130_fd_sc_hd__a21oi_1
*I *200:Y O *D sky130_fd_sc_hd__nand2_1
*CAP
1 *205:B1_N 0
2 *206:A_N 0.000146827
3 *234:C 0.000147276
4 *239:A1 0
5 *200:Y 0.000208684
6 *28:34 0.000729968
7 *28:12 0.000281416
8 *28:6 0.000925966
9 *206:A_N *55:10 9.83442e-05
10 *234:C *234:A 0.000143781
11 *28:6 *75:49 8.27184e-06
12 *28:6 *79:8 2.65105e-05
13 *28:12 *236:B 1.02504e-05
14 *28:12 *240:B1 2.62714e-05
15 *28:12 *61:10 0.000339202
16 *28:12 *80:73 0.000101436
17 *28:34 *225:C 0.000140933
18 *28:34 *75:49 1.11428e-05
19 *28:34 *75:62 0.000185414
20 *249:A *28:6 3.4879e-05
*RES
1 *200:Y *28:6 11.8893 
2 *28:6 *28:12 13.375 
3 *28:12 *239:A1 9.3 
4 *28:12 *234:C 12.175 
5 *28:6 *28:34 9.73214 
6 *28:34 *206:A_N 20.8893 
7 *28:34 *205:B1_N 9.3 
*END

*D_NET *29 0.00142978
*CONN
*I *203:C I *D sky130_fd_sc_hd__or4b_2
*I *204:A2_N I *D sky130_fd_sc_hd__a2bb2o_1
*I *201:Y O *D sky130_fd_sc_hd__nand2_1
*CAP
1 *203:C 0.000123943
2 *204:A2_N 8.66301e-05
3 *201:Y 0.000248031
4 *29:14 0.000458604
5 *203:C *193:A 5.49544e-05
6 *203:C *32:10 1.33343e-05
7 *204:A2_N *203:D_N 7.34791e-05
8 *204:A2_N *32:10 0.000100262
9 *29:14 *193:A 5.71727e-05
10 *29:14 *194:B 0
11 *29:14 *202:B 0
12 *29:14 *203:D_N 1.02132e-05
13 *29:14 *35:29 7.86973e-05
14 *203:A *203:C 2.61505e-05
15 *203:A *29:14 3.99614e-06
16 *203:B *203:C 2.8369e-05
17 *203:B *204:A2_N 9.35114e-06
18 *204:A1_N *204:A2_N 5.65955e-05
*RES
1 *201:Y *29:14 22.0321 
2 *29:14 *204:A2_N 12.0321 
3 *29:14 *203:C 12.0321 
*END

*D_NET *30 0.00161307
*CONN
*I *204:B1 I *D sky130_fd_sc_hd__a2bb2o_1
*I *203:D_N I *D sky130_fd_sc_hd__or4b_2
*I *202:X O *D sky130_fd_sc_hd__and2_1
*CAP
1 *204:B1 0
2 *203:D_N 0.000186611
3 *202:X 0.000200888
4 *30:12 0.000387498
5 *203:D_N *202:B 4.58194e-05
6 *30:12 *35:29 0.000117351
7 *30:12 *78:72 3.51442e-05
8 *30:12 *78:74 0.000104974
9 *203:B *203:D_N 0.000227019
10 *204:A1_N *203:D_N 9.83442e-05
11 *204:A2_N *203:D_N 7.34791e-05
12 *204:B2 *30:12 0.000125731
13 *29:14 *203:D_N 1.02132e-05
*RES
1 *202:X *30:12 21.7107 
2 *30:12 *203:D_N 13.8714 
3 *30:12 *204:B1 9.3 
*END

*D_NET *31 0.00326137
*CONN
*I *230:A1 I *D sky130_fd_sc_hd__a21o_1
*I *229:A I *D sky130_fd_sc_hd__and3_1
*I *206:B I *D sky130_fd_sc_hd__nand3b_2
*I *205:A1 I *D sky130_fd_sc_hd__a21bo_1
*I *203:X O *D sky130_fd_sc_hd__or4b_2
*CAP
1 *230:A1 0.000273409
2 *229:A 0.000129764
3 *206:B 0
4 *205:A1 5.75125e-05
5 *203:X 0.000169718
6 *31:28 0.000554242
7 *31:19 0.000245734
8 *31:8 0.000321896
9 *205:A1 *75:62 3.0189e-05
10 *229:A *229:C 1.95435e-05
11 *229:A *233:A 0.000311128
12 *229:A *237:B1 3.08664e-05
13 *229:A *56:6 2.36643e-05
14 *230:A1 *229:C 0
15 *230:A1 *230:A2 9.87617e-05
16 *230:A1 *230:B1 2.36643e-05
17 *230:A1 *231:B 0.000167691
18 *230:A1 *237:B1 0.000129868
19 *230:A1 *55:10 0
20 *230:A1 *55:25 0
21 *230:A1 *57:10 0.000151333
22 *31:8 *206:C 3.34295e-05
23 *31:8 *32:10 0.000315172
24 *31:8 *75:62 2.56601e-05
25 *31:8 *75:73 0
26 *31:19 *206:C 9.0505e-05
27 *31:19 *216:B 0
28 *31:19 *33:12 0
29 *31:28 *216:B 0
30 *31:28 *231:B 5.7616e-05
31 *31:28 *55:10 0
*RES
1 *203:X *31:8 18.175 
2 *31:8 *205:A1 14.7464 
3 *31:8 *31:19 2.25 
4 *31:19 *206:B 13.8 
5 *31:19 *31:28 2.85714 
6 *31:28 *229:A 17.2286 
7 *31:28 *230:A1 20.4429 
*END

*D_NET *32 0.00131367
*CONN
*I *206:C I *D sky130_fd_sc_hd__nand3b_2
*I *205:A2 I *D sky130_fd_sc_hd__a21bo_1
*I *204:X O *D sky130_fd_sc_hd__a2bb2o_1
*CAP
1 *206:C 0.000145233
2 *205:A2 0
3 *204:X 0.000235252
4 *32:10 0.000380484
5 *32:10 *78:72 0
6 *203:C *32:10 1.33343e-05
7 *204:A2_N *32:10 0.000100262
8 *31:8 *206:C 3.34295e-05
9 *31:8 *32:10 0.000315172
10 *31:19 *206:C 9.0505e-05
*RES
1 *204:X *32:10 18.8179 
2 *32:10 *205:A2 13.8 
3 *32:10 *206:C 17.0143 
*END

*D_NET *33 0.00176073
*CONN
*I *217:A1 I *D sky130_fd_sc_hd__a21oi_1
*I *215:A I *D sky130_fd_sc_hd__and3_1
*I *216:A I *D sky130_fd_sc_hd__nand3_1
*I *205:X O *D sky130_fd_sc_hd__a21bo_1
*CAP
1 *217:A1 4.27505e-05
2 *215:A 0
3 *216:A 0
4 *205:X 0.00042837
5 *33:21 0.000110553
6 *33:12 0.000496172
7 *217:A1 *216:C 0.000113342
8 *217:A1 *217:A2 0.000144773
9 *217:A1 *34:43 2.95641e-05
10 *217:A1 *42:14 0.000176204
11 *33:12 *216:B 1.19402e-05
12 *33:12 *75:62 9.00281e-06
13 *33:21 *216:B 5.52302e-05
14 *33:21 *216:C 3.4855e-05
15 *33:21 *217:A2 5.7661e-06
16 *33:21 *34:43 0.000102207
17 *31:19 *33:12 0
*RES
1 *205:X *33:12 23.7643 
2 *33:12 *216:A 9.3 
3 *33:12 *33:21 2.19643 
4 *33:21 *215:A 9.3 
5 *33:21 *217:A1 11.8893 
*END

*D_NET *34 0.00366009
*CONN
*I *215:B I *D sky130_fd_sc_hd__and3_1
*I *217:A2 I *D sky130_fd_sc_hd__a21oi_1
*I *230:A2 I *D sky130_fd_sc_hd__a21o_1
*I *229:B I *D sky130_fd_sc_hd__and3_1
*I *216:B I *D sky130_fd_sc_hd__nand3_1
*I *206:Y O *D sky130_fd_sc_hd__nand3b_2
*CAP
1 *215:B 2.23854e-05
2 *217:A2 7.97147e-05
3 *230:A2 0.000338529
4 *229:B 7.56883e-05
5 *216:B 0.000144114
6 *206:Y 0.000104447
7 *34:43 0.000279795
8 *34:21 0.000471153
9 *34:8 0.00020105
10 *34:6 0.000282141
11 *216:B *55:10 1.41642e-05
12 *229:B *233:A 4.96113e-05
13 *230:A2 *230:B1 0.000553627
14 *230:A2 *233:A 0.000218114
15 *230:A2 *44:10 1.69115e-05
16 *230:A2 *55:10 3.39427e-05
17 *230:A2 *55:25 0.000159375
18 *34:6 *55:10 9.83388e-05
19 *34:21 *44:10 2.56601e-05
20 *34:21 *55:10 4.30904e-05
21 *217:A1 *217:A2 0.000144773
22 *217:A1 *34:43 2.95641e-05
23 *230:A1 *230:A2 9.87617e-05
24 *31:19 *216:B 0
25 *31:28 *216:B 0
26 *33:12 *216:B 1.19402e-05
27 *33:21 *216:B 5.52302e-05
28 *33:21 *217:A2 5.7661e-06
29 *33:21 *34:43 0.000102207
*RES
1 *206:Y *34:6 11.0679 
2 *34:6 *34:8 4.5 
3 *34:8 *216:B 16.6036 
4 *34:8 *34:21 1.33929 
5 *34:21 *229:B 14.7464 
6 *34:21 *230:A2 23.5143 
7 *34:6 *34:43 3.82143 
8 *34:43 *217:A2 11.3893 
9 *34:43 *215:B 9.72857 
*END

*D_NET *35 0.00503667
*CONN
*I *226:A I *D sky130_fd_sc_hd__xnor2_1
*I *209:B I *D sky130_fd_sc_hd__or3_1
*I *212:A1 I *D sky130_fd_sc_hd__o21ai_1
*I *235:A1 I *D sky130_fd_sc_hd__a21oi_1
*I *207:X O *D sky130_fd_sc_hd__and4_1
*CAP
1 *226:A 8.71624e-05
2 *209:B 7.00855e-05
3 *212:A1 0.000110339
4 *235:A1 0.000145853
5 *207:X 0.000285197
6 *35:29 0.000814957
7 *35:21 0.000777473
8 *35:10 0.000486828
9 *209:B *212:A2 1.95064e-05
10 *212:A1 *212:A2 0.000152311
11 *226:A *235:A2 0.000150625
12 *226:A *235:B1 0
13 *226:A *53:10 1.41029e-05
14 *235:A1 *235:A2 0.000175493
15 *35:10 *189:A 0
16 *35:10 *195:B 0.000232399
17 *35:10 *79:16 0.00010096
18 *35:21 *210:B 0
19 *35:21 *235:A2 3.17148e-05
20 *35:21 *235:B1 0
21 *35:29 *194:B 0.000272603
22 *35:29 *202:A 5.52302e-05
23 *35:29 *235:A2 5.33005e-05
24 *35:29 *77:40 5.90336e-05
25 *35:29 *77:48 0.000304649
26 *199:A *212:A1 0.000267377
27 *199:A *35:29 0.000144514
28 *248:A *35:29 2.89114e-05
29 *29:14 *35:29 7.86973e-05
30 *30:12 *35:29 0.000117351
*RES
1 *207:X *35:10 18.1393 
2 *35:10 *235:A1 16.8 
3 *35:10 *35:21 1.03571 
4 *35:21 *35:29 19.1429 
5 *35:29 *212:A1 13.05 
6 *35:29 *209:B 10.5679 
7 *35:21 *226:A 16.05 
*END

*D_NET *36 0.00264589
*CONN
*I *212:A2 I *D sky130_fd_sc_hd__o21ai_1
*I *209:C I *D sky130_fd_sc_hd__or3_1
*I *208:Y O *D sky130_fd_sc_hd__nand2_1
*CAP
1 *212:A2 0.000104332
2 *209:C 0
3 *208:Y 0.000798239
4 *36:12 0.000902571
5 *36:12 *201:B 4.40153e-05
6 *36:12 *258:A 5.52238e-05
7 *36:12 *77:8 2.84109e-05
8 *36:12 *78:8 0
9 *36:12 *78:66 0
10 *196:D *36:12 0.00010096
11 *198:B *212:A2 0.000142856
12 *199:A *212:A2 1.74352e-05
13 *209:A *36:12 0.000123295
14 *209:B *212:A2 1.95064e-05
15 *212:A1 *212:A2 0.000152311
16 *24:38 *36:12 0.00015673
*RES
1 *208:Y *36:12 29.1036 
2 *36:12 *209:C 9.3 
3 *36:12 *212:A2 12.8893 
*END

*D_NET *37 0.00178581
*CONN
*I *219:A1 I *D sky130_fd_sc_hd__a21o_1
*I *213:A I *D sky130_fd_sc_hd__nand3_1
*I *214:B1_N I *D sky130_fd_sc_hd__a21bo_1
*I *209:X O *D sky130_fd_sc_hd__or3_1
*CAP
1 *219:A1 3.35954e-05
2 *213:A 0.000151986
3 *214:B1_N 7.17422e-05
4 *209:X 0.000133248
5 *37:19 0.000373092
6 *37:10 0.000392501
7 *213:A *213:B 2.59093e-05
8 *213:A *213:C 6.8646e-06
9 *213:A *221:C 0
10 *213:A *40:8 1.97381e-05
11 *213:A *42:10 0.000153047
12 *213:A *48:10 0
13 *213:A *49:10 0
14 *214:B1_N *39:8 3.67142e-05
15 *219:A1 *219:A2 6.05161e-06
16 *219:A1 *219:B1 1.56e-05
17 *37:10 *40:8 9.32873e-05
18 *37:10 *78:66 0
19 *37:19 *219:A2 7.48091e-05
20 *37:19 *39:8 3.67257e-05
21 *37:19 *39:15 1.02821e-05
22 *220:A2 *37:10 0.000150618
*RES
1 *209:X *37:10 21.7643 
2 *37:10 *214:B1_N 10.2464 
3 *37:10 *37:19 2.58929 
4 *37:19 *213:A 21.7643 
5 *37:19 *219:A1 9.83571 
*END

*D_NET *38 0.00256954
*CONN
*I *211:A_N I *D sky130_fd_sc_hd__and3b_1
*I *226:B I *D sky130_fd_sc_hd__xnor2_1
*I *235:A2 I *D sky130_fd_sc_hd__a21oi_1
*I *210:X O *D sky130_fd_sc_hd__and4_1
*CAP
1 *211:A_N 0.000399788
2 *226:B 0
3 *235:A2 0.000271231
4 *210:X 0
5 *38:8 0.000366473
6 *38:4 0.00049503
7 *211:A_N *210:B 2.94103e-05
8 *211:A_N *228:B 1.19402e-05
9 *211:A_N *53:10 4.71964e-05
10 *211:A_N *76:47 9.54028e-05
11 *211:A_N *78:72 0.000241228
12 *235:A2 *210:B 0
13 *235:A2 *53:10 5.83304e-05
14 *235:A2 *61:10 2.89016e-05
15 *38:8 *210:D 9.7659e-05
16 *38:8 *53:10 1.58163e-05
17 *226:A *235:A2 0.000150625
18 *235:A1 *235:A2 0.000175493
19 *35:21 *235:A2 3.17148e-05
20 *35:29 *235:A2 5.33005e-05
*RES
1 *210:X *38:4 9.3 
2 *38:4 *38:8 2.19643 
3 *38:8 *235:A2 24.8 
4 *38:8 *226:B 9.3 
5 *38:4 *211:A_N 27.2464 
*END

*D_NET *39 0.00193069
*CONN
*I *219:B1 I *D sky130_fd_sc_hd__a21o_1
*I *213:B I *D sky130_fd_sc_hd__nand3_1
*I *214:A1 I *D sky130_fd_sc_hd__a21bo_1
*I *211:X O *D sky130_fd_sc_hd__and3b_1
*CAP
1 *219:B1 0.000128314
2 *213:B 9.41141e-05
3 *214:A1 0
4 *211:X 0.000307864
5 *39:15 0.000269672
6 *39:8 0.000355107
7 *213:B *213:C 0.000202842
8 *213:B *42:10 0.000153047
9 *219:B1 *219:A2 8.57023e-05
10 *219:B1 *241:A2 1.3701e-05
11 *39:8 *75:73 7.64988e-05
12 *39:8 *78:66 6.33633e-05
13 *39:15 *219:A2 5.52302e-05
14 *213:A *213:B 2.59093e-05
15 *214:B1_N *39:8 3.67142e-05
16 *219:A1 *219:B1 1.56e-05
17 *37:19 *39:8 3.67257e-05
18 *37:19 *39:15 1.02821e-05
*RES
1 *211:X *39:8 15.6036 
2 *39:8 *214:A1 9.3 
3 *39:8 *39:15 0.946429 
4 *39:15 *213:B 21.3893 
5 *39:15 *219:B1 11.9071 
*END

*D_NET *40 0.00123624
*CONN
*I *213:C I *D sky130_fd_sc_hd__nand3_1
*I *219:A2 I *D sky130_fd_sc_hd__a21o_1
*I *214:A2 I *D sky130_fd_sc_hd__a21bo_1
*I *212:Y O *D sky130_fd_sc_hd__o21ai_1
*CAP
1 *213:C 0.000112919
2 *219:A2 3.49756e-05
3 *214:A2 0
4 *212:Y 0.000197961
5 *40:10 3.49756e-05
6 *40:8 0.000310881
7 *213:A *213:C 6.8646e-06
8 *213:A *40:8 1.97381e-05
9 *213:B *213:C 0.000202842
10 *219:A1 *219:A2 6.05161e-06
11 *219:B1 *219:A2 8.57023e-05
12 *220:B1 *40:8 0
13 *37:10 *40:8 9.32873e-05
14 *37:19 *219:A2 7.48091e-05
15 *39:15 *219:A2 5.52302e-05
*RES
1 *212:Y *40:8 17.8714 
2 *40:8 *40:10 4.5 
3 *40:10 *214:A2 9.3 
4 *40:10 *219:A2 10.6571 
5 *40:8 *213:C 16.6571 
*END

*D_NET *41 0.00179137
*CONN
*I *221:A I *D sky130_fd_sc_hd__nand3_2
*I *241:A1 I *D sky130_fd_sc_hd__a21o_1
*I *213:Y O *D sky130_fd_sc_hd__nand3_1
*CAP
1 *221:A 4.43137e-05
2 *241:A1 0.000236422
3 *213:Y 0.000447411
4 *41:8 0.000728147
5 *221:A *221:B 0
6 *221:A *242:B 2.88517e-05
7 *241:A1 *221:B 5.17614e-05
8 *241:A1 *221:C 0
9 *241:A1 *241:A2 3.57366e-05
10 *241:A1 *242:B 7.67538e-05
11 *41:8 *242:A 7.03295e-05
12 *41:8 *49:10 7.16452e-05
*RES
1 *213:Y *41:8 19.2643 
2 *41:8 *241:A1 18.4607 
3 *41:8 *221:A 14.8357 
*END

*D_NET *42 0.00157843
*CONN
*I *217:B1 I *D sky130_fd_sc_hd__a21oi_1
*I *215:C I *D sky130_fd_sc_hd__and3_1
*I *216:C I *D sky130_fd_sc_hd__nand3_1
*I *214:X O *D sky130_fd_sc_hd__a21bo_1
*CAP
1 *217:B1 0
2 *215:C 0
3 *216:C 0.000116929
4 *214:X 0.000159548
5 *42:14 0.000313955
6 *42:10 0.000356574
7 *42:10 *49:10 0
8 *42:14 *45:10 9.33978e-07
9 *213:A *42:10 0.000153047
10 *213:B *42:10 0.000153047
11 *217:A1 *216:C 0.000113342
12 *217:A1 *42:14 0.000176204
13 *33:21 *216:C 3.4855e-05
*RES
1 *214:X *42:10 22.0679 
2 *42:10 *42:14 2.90179 
3 *42:14 *216:C 11.2018 
4 *42:14 *215:C 9.3 
5 *42:10 *217:B1 9.3 
*END

*D_NET *43 0.000441942
*CONN
*I *218:A I *D sky130_fd_sc_hd__nor2_1
*I *215:X O *D sky130_fd_sc_hd__and3_1
*CAP
1 *218:A 0.000220971
2 *215:X 0.000220971
3 *218:A *44:10 0
4 *218:A *45:10 0
*RES
1 *215:X *218:A 31.3143 
*END

*D_NET *44 0.00152139
*CONN
*I *232:B1 I *D sky130_fd_sc_hd__o21a_1
*I *237:B2 I *D sky130_fd_sc_hd__o221ai_4
*I *216:Y O *D sky130_fd_sc_hd__nand3_1
*CAP
1 *232:B1 0.000167014
2 *237:B2 0.000203574
3 *216:Y 0.00016415
4 *44:10 0.000534738
5 *232:B1 *233:B 4.9773e-05
6 *232:B1 *237:A1 8.47274e-05
7 *237:B2 *233:B 2.51343e-06
8 *237:B2 *237:A2 9.60939e-05
9 *44:10 *233:A 0.000176234
10 *218:A *44:10 0
11 *230:A2 *44:10 1.69115e-05
12 *34:21 *44:10 2.56601e-05
*RES
1 *216:Y *44:10 22.0679 
2 *44:10 *237:B2 12.3179 
3 *44:10 *232:B1 12.7286 
*END

*D_NET *45 0.000981197
*CONN
*I *232:A1 I *D sky130_fd_sc_hd__o21a_1
*I *218:B I *D sky130_fd_sc_hd__nor2_1
*I *217:Y O *D sky130_fd_sc_hd__a21oi_1
*CAP
1 *232:A1 0.000195747
2 *218:B 0
3 *217:Y 0.000201053
4 *45:10 0.000396801
5 *232:A1 *49:23 0.000186662
6 *45:10 *49:10 0
7 *45:10 *49:23 0
8 *218:A *45:10 0
9 *42:14 *45:10 9.33978e-07
*RES
1 *217:Y *45:10 16.6929 
2 *45:10 *218:B 13.8 
3 *45:10 *232:A1 17.8179 
*END

*D_NET *46 0.000492199
*CONN
*I *222:A I *D sky130_fd_sc_hd__xnor2_1
*I *218:Y O *D sky130_fd_sc_hd__nor2_1
*CAP
1 *222:A 0.0002461
2 *218:Y 0.0002461
3 *222:A *254:A 0
*RES
1 *218:Y *222:A 22.3321 
*END

*D_NET *47 0.000809719
*CONN
*I *221:B I *D sky130_fd_sc_hd__nand3_2
*I *241:A2 I *D sky130_fd_sc_hd__a21o_1
*I *219:X O *D sky130_fd_sc_hd__a21o_1
*CAP
1 *221:B 0.000194662
2 *241:A2 3.97875e-05
3 *219:X 4.57119e-05
4 *47:6 0.000280162
5 *221:B *221:C 0.000148196
6 *219:B1 *241:A2 1.3701e-05
7 *221:A *221:B 0
8 *241:A1 *221:B 5.17614e-05
9 *241:A1 *241:A2 3.57366e-05
*RES
1 *219:X *47:6 9.83571 
2 *47:6 *241:A2 10.3357 
3 *47:6 *221:B 21.6036 
*END

*D_NET *48 0.00106771
*CONN
*I *241:B1 I *D sky130_fd_sc_hd__a21o_1
*I *221:C I *D sky130_fd_sc_hd__nand3_2
*I *220:X O *D sky130_fd_sc_hd__a21o_1
*CAP
1 *241:B1 0
2 *221:C 0.000192531
3 *220:X 0.000250508
4 *48:10 0.000443039
5 *221:C *49:10 3.34366e-05
6 *213:A *221:C 0
7 *213:A *48:10 0
8 *221:B *221:C 0.000148196
9 *241:A1 *221:C 0
*RES
1 *220:X *48:10 17.2107 
2 *48:10 *221:C 17.1929 
3 *48:10 *241:B1 13.8 
*END

*D_NET *49 0.00236991
*CONN
*I *242:A I *D sky130_fd_sc_hd__and2_1
*I *232:A2 I *D sky130_fd_sc_hd__o21a_1
*I *237:A1 I *D sky130_fd_sc_hd__o221ai_4
*I *222:B I *D sky130_fd_sc_hd__xnor2_1
*I *221:Y O *D sky130_fd_sc_hd__nand3_2
*CAP
1 *242:A 8.23006e-05
2 *232:A2 0
3 *237:A1 0.000111365
4 *222:B 0
5 *221:Y 0
6 *49:23 0.000514146
7 *49:10 0.000751953
8 *49:4 0.000431473
9 *237:A1 *233:B 3.18676e-05
10 P[3] *49:10 0
11 P[4] *49:10 0
12 *213:A *49:10 0
13 *221:C *49:10 3.34366e-05
14 *232:A1 *49:23 0.000186662
15 *232:B1 *237:A1 8.47274e-05
16 *41:8 *242:A 7.03295e-05
17 *41:8 *49:10 7.16452e-05
18 *42:10 *49:10 0
19 *45:10 *49:10 0
20 *45:10 *49:23 0
*RES
1 *221:Y *49:4 9.3 
2 *49:4 *49:10 10.8393 
3 *49:10 *222:B 13.8 
4 *49:10 *49:23 12 
5 *49:23 *237:A1 11.9071 
6 *49:23 *232:A2 9.3 
7 *49:4 *242:A 11.0679 
*END

*D_NET *50 0.000189437
*CONN
*I *239:B1 I *D sky130_fd_sc_hd__a21oi_1
*I *223:Y O *D sky130_fd_sc_hd__nand2_1
*CAP
1 *239:B1 5.60861e-05
2 *223:Y 5.60861e-05
3 *239:B1 *234:A 4.97471e-05
4 *239:B1 *234:B 1.15281e-05
5 *239:B1 *80:73 1.59901e-05
*RES
1 *223:Y *239:B1 19.5464 
*END

*D_NET *51 0.00114338
*CONN
*I *227:A_N I *D sky130_fd_sc_hd__and4bb_1
*I *225:A_N I *D sky130_fd_sc_hd__and3b_1
*I *224:X O *D sky130_fd_sc_hd__and4_1
*CAP
1 *227:A_N 0.000155855
2 *225:A_N 5.40678e-05
3 *224:X 0.000105732
4 *51:6 0.000315655
5 *225:A_N *61:10 4.25809e-05
6 *225:A_N *80:58 0.000125731
7 *227:A_N *224:C 4.48669e-05
8 *227:A_N *227:B_N 1.92905e-05
9 *227:A_N *76:47 8.25843e-06
10 *227:A_N *80:54 4.18895e-05
11 *51:6 *80:54 0.000229456
*RES
1 *224:X *51:6 11.4786 
2 *51:6 *225:A_N 19.9429 
3 *51:6 *227:A_N 11.8893 
*END

*D_NET *52 0.000442708
*CONN
*I *228:A I *D sky130_fd_sc_hd__xor2_2
*I *225:X O *D sky130_fd_sc_hd__and3b_1
*CAP
1 *228:A 0.000151379
2 *225:X 0.000151379
3 *228:A *228:B 0.000128154
4 *228:A *76:28 1.17968e-05
*RES
1 *225:X *228:A 30.4929 
*END

*D_NET *53 0.00188275
*CONN
*I *228:B I *D sky130_fd_sc_hd__xor2_2
*I *227:B_N I *D sky130_fd_sc_hd__and4bb_1
*I *226:Y O *D sky130_fd_sc_hd__xnor2_1
*CAP
1 *228:B 0.000195288
2 *227:B_N 1.55603e-05
3 *226:Y 0.000327924
4 *53:10 0.000538773
5 *227:B_N *76:47 5.52302e-05
6 *228:B *76:28 0.000403783
7 *53:10 *210:B 0
8 *53:10 *210:D 1.79233e-05
9 *53:10 *235:B1 0
10 *53:10 *76:28 3.34366e-05
11 *211:A_N *228:B 1.19402e-05
12 *211:A_N *53:10 4.71964e-05
13 *226:A *53:10 1.41029e-05
14 *227:A_N *227:B_N 1.92905e-05
15 *228:A *228:B 0.000128154
16 *235:A2 *53:10 5.83304e-05