*SPEF "ieee 1481-1999"
*DESIGN "SarsanStepsNada_e8"
*DATE "18:25:53 Tuesday September 16, 2025"
*VENDOR "The OpenROAD Project"
*PROGRAM "OpenROAD"
*VERSION "edf00dff99f6c40d67a30c0e22a8191c5d2ed9d6"
*DESIGN_FLOW "NAME_SCOPE LOCAL" "PIN_CAP NONE"
*DIVIDER /
*DELIMITER :
*BUS_DELIMITER []
*T_UNIT 1 NS
*C_UNIT 1 PF
*R_UNIT 1 OHM
*L_UNIT 1 HENRY

*NAME_MAP
*1 A[0]
*2 A[1]
*3 B[0]
*4 B[1]
*5 P[0]
*6 P[1]
*7 P[2]
*8 P[3]
*11 _0_
*12 net1
*13 net2
*14 net3
*15 net4
*16 net5
*17 net6
*18 net7
*19 net8
*20 FILLER_0_15
*21 FILLER_0_27
*22 FILLER_0_29
*23 FILLER_0_3
*24 FILLER_0_41
*25 FILLER_0_53
*26 FILLER_0_57
*27 FILLER_0_69
*28 FILLER_1_15
*29 FILLER_1_27
*30 FILLER_1_3
*31 FILLER_1_39
*32 FILLER_1_51
*33 FILLER_1_55
*34 FILLER_1_57
*35 FILLER_1_69
*36 FILLER_2_18
*37 FILLER_2_26
*38 FILLER_2_29
*39 FILLER_2_41
*40 FILLER_2_53
*41 FILLER_2_6
*42 FILLER_2_65
*43 FILLER_2_77
*44 FILLER_3_15
*45 FILLER_3_27
*46 FILLER_3_3
*47 FILLER_3_39
*48 FILLER_3_51
*49 FILLER_3_55
*50 FILLER_3_57
*51 FILLER_3_69
*52 FILLER_4_18
*53 FILLER_4_24
*54 FILLER_4_29
*55 FILLER_4_41
*56 FILLER_4_53
*57 FILLER_4_6
*58 FILLER_4_65
*59 FILLER_4_77
*60 FILLER_5_19
*61 FILLER_5_30
*62 FILLER_5_42
*63 FILLER_5_54
*64 FILLER_5_57
*65 FILLER_5_69
*66 FILLER_5_7
*67 FILLER_6_18
*68 FILLER_6_26
*69 FILLER_6_36
*70 FILLER_6_48
*71 FILLER_6_6
*72 FILLER_6_60
*73 FILLER_6_72
*74 FILLER_6_76
*75 FILLER_7_26
*76 FILLER_7_38
*77 FILLER_7_50
*78 FILLER_7_57
*79 FILLER_7_69
*80 FILLER_7_7
*81 FILLER_8_15
*82 FILLER_8_27
*83 FILLER_8_29
*84 FILLER_8_3
*85 FILLER_8_41
*86 FILLER_8_53
*87 FILLER_8_65
*88 FILLER_8_77
*89 FILLER_9_18
*90 FILLER_9_26
*91 FILLER_9_29
*92 FILLER_9_41
*93 FILLER_9_53
*94 FILLER_9_57
*95 FILLER_9_6
*96 FILLER_9_69
*97 PHY_EDGE_ROW_0_Left_10
*98 PHY_EDGE_ROW_0_Right_0
*99 PHY_EDGE_ROW_1_Left_11
*100 PHY_EDGE_ROW_1_Right_1
*101 PHY_EDGE_ROW_2_Left_12
*102 PHY_EDGE_ROW_2_Right_2
*103 PHY_EDGE_ROW_3_Left_13
*104 PHY_EDGE_ROW_3_Right_3
*105 PHY_EDGE_ROW_4_Left_14
*106 PHY_EDGE_ROW_4_Right_4
*107 PHY_EDGE_ROW_5_Left_15
*108 PHY_EDGE_ROW_5_Right_5
*109 PHY_EDGE_ROW_6_Left_16
*110 PHY_EDGE_ROW_6_Right_6
*111 PHY_EDGE_ROW_7_Left_17
*112 PHY_EDGE_ROW_7_Right_7
*113 PHY_EDGE_ROW_8_Left_18
*114 PHY_EDGE_ROW_8_Right_8
*115 PHY_EDGE_ROW_9_Left_19
*116 PHY_EDGE_ROW_9_Right_9
*117 TAP_TAPCELL_ROW_0_20
*118 TAP_TAPCELL_ROW_0_21
*119 TAP_TAPCELL_ROW_1_22
*120 TAP_TAPCELL_ROW_2_23
*121 TAP_TAPCELL_ROW_3_24
*122 TAP_TAPCELL_ROW_4_25
*123 TAP_TAPCELL_ROW_5_26
*124 TAP_TAPCELL_ROW_6_27
*125 TAP_TAPCELL_ROW_7_28
*126 TAP_TAPCELL_ROW_8_29
*127 TAP_TAPCELL_ROW_9_30
*128 TAP_TAPCELL_ROW_9_31
*129 _1_
*130 _2_
*131 _3_
*132 _4_
*133 _5_
*134 input1
*135 input2
*136 input3
*137 input4
*138 output5
*139 output6
*140 output7
*141 output8

*PORTS
A[0] I
A[1] I
B[0] I
B[1] I
P[0] O
P[1] O
P[2] O
P[3] O

*D_NET *1 0.000572527
*CONN
*P A[0] I
*I *134:A I *D sky130_fd_sc_hd__buf_1
*CAP
1 A[0] 0.000272764
2 *134:A 0.000272764
3 *134:A *136:A 2.69997e-05
*RES
1 A[0] *134:A 7.0893 
*END

*D_NET *2 0.000633166
*CONN
*P A[1] I
*I *135:A I *D sky130_fd_sc_hd__buf_1
*CAP
1 A[1] 0.000305338
2 *135:A 0.000305338
3 *135:A P[0] 2.24901e-05
4 *135:A *137:A 0
*RES
1 A[1] *135:A 6.63177 
*END

*D_NET *3 0.000651011
*CONN
*P B[0] I
*I *136:A I *D sky130_fd_sc_hd__buf_1
*CAP
1 B[0] 0.000297188
2 *136:A 0.000297188
3 *136:A P[1] 2.96366e-05
4 *134:A *136:A 2.69997e-05
*RES
1 B[0] *136:A 7.8543 
*END

*D_NET *4 0.000492762
*CONN
*P B[1] I
*I *137:A I *D sky130_fd_sc_hd__buf_1
*CAP
1 B[1] 0.000203597
2 *137:A 0.000203597
3 *137:A P[0] 3.14094e-05
4 *137:A P[1] 2.85068e-05
5 *137:A *139:A 2.56523e-05
6 *135:A *137:A 0
*RES
1 B[1] *137:A 5.35677 
*END

*D_NET *5 0.000660243
*CONN
*P P[0] O
*I *138:X O *D sky130_fd_sc_hd__buf_2
*CAP
1 P[0] 0.000303172
2 *138:X 0.000303172
3 *135:A P[0] 2.24901e-05
4 *137:A P[0] 3.14094e-05
*RES
1 *138:X P[0] 7.1793 
*END

*D_NET *6 0.000661148
*CONN
*P P[1] O
*I *139:X O *D sky130_fd_sc_hd__buf_2
*CAP
1 P[1] 0.000301502
2 *139:X 0.000301502
3 *136:A P[1] 2.96366e-05
4 *137:A P[1] 2.85068e-05
*RES
1 *139:X P[1] 7.1793 
*END

*D_NET *7 0.000527701
*CONN
*P P[2] O
*I *140:X O *D sky130_fd_sc_hd__buf_2
*CAP
1 P[2] 0.000217577
2 *140:X 0.000217577
3 P[2] P[3] 9.25475e-05
*RES
1 *140:X P[2] 5.41503 
*END

*D_NET *8 0.000462966
*CONN
*P P[3] O
*I *141:X O *D sky130_fd_sc_hd__buf_2
*CAP
1 P[3] 0.000185209
2 *141:X 0.000185209
3 P[2] P[3] 9.25475e-05
*RES
1 *141:X P[3] 4.90503 
*END

*D_NET *11 0.00060486
*CONN
*I *132:C I *D sky130_fd_sc_hd__and3_1
*I *129:Y O *D sky130_fd_sc_hd__nand2_1
*CAP
1 *132:C 0.000265841
2 *129:Y 0.000265841
3 *132:C *132:B 6.37488e-06
4 *132:C *12:19 0
5 *132:C *14:10 1.33293e-05
6 *132:C *14:21 5.34747e-05
*RES
1 *129:Y *132:C 11.085 
*END

*D_NET *12 0.00295808
*CONN
*I *130:D I *D sky130_fd_sc_hd__and4_1
*I *133:D I *D sky130_fd_sc_hd__and4_1
*I *129:B I *D sky130_fd_sc_hd__nand2_1
*I *134:X O *D sky130_fd_sc_hd__buf_1
*CAP
1 *130:D 0.00012478
2 *133:D 0.000273669
3 *129:B 0
4 *134:X 0.000736206
5 *12:19 0.000619042
6 *12:10 0.000956799
7 *130:D *130:B 0
8 *130:D *132:A 3.85797e-05
9 *130:D *15:23 5.4256e-05
10 *133:D *133:A 0.000107704
11 *12:10 *14:21 0
12 *12:19 *130:B 0
13 *12:19 *132:A 4.7043e-05
14 *12:19 *14:21 0
15 *132:C *12:19 0
*RES
1 *134:X *12:10 12.645 
2 *12:10 *129:B 3.6 
3 *12:10 *12:19 3.93 
4 *12:19 *133:D 7.845 
5 *12:19 *130:D 6.255 
*END

*D_NET *13 0.00372928
*CONN
*I *133:C I *D sky130_fd_sc_hd__and4_1
*I *132:B I *D sky130_fd_sc_hd__and3_1
*I *130:C I *D sky130_fd_sc_hd__and4_1
*I *131:A2 I *D sky130_fd_sc_hd__o21ba_1
*I *135:X O *D sky130_fd_sc_hd__buf_1
*CAP
1 *133:C 0
2 *132:B 0.000280351
3 *130:C 0
4 *131:A2 4.06336e-05
5 *135:X 0.00054288
6 *13:34 0.000670336
7 *13:23 0.000544835
8 *13:10 0.000738363
9 *131:A2 *15:23 5.53249e-06
10 *132:B *130:B 5.33085e-05
11 *132:B *140:A 1.35779e-05
12 *132:B *14:21 0.000185405
13 *13:23 *130:A 0.000164874
14 *13:23 *16:8 3.09088e-05
15 *13:34 *130:A 0.000114912
16 *13:34 *130:B 0.000336987
17 *132:C *132:B 6.37488e-06
*RES
1 *135:X *13:10 10.41 
2 *13:10 *131:A2 4.215 
3 *13:10 *13:23 4.175 
4 *13:23 *130:C 1.6 
5 *13:23 *13:34 8.465 
6 *13:34 *132:B 8.085 
7 *13:34 *133:C 3.6 
*END

*D_NET *14 0.00292007
*CONN
*I *130:B I *D sky130_fd_sc_hd__and4_1
*I *133:B I *D sky130_fd_sc_hd__and4_1
*I *129:A I *D sky130_fd_sc_hd__nand2_1
*I *136:X O *D sky130_fd_sc_hd__buf_1
*CAP
1 *130:B 0.000247286
2 *133:B 0
3 *129:A 0
4 *136:X 0.000493979
5 *14:21 0.000600673
6 *14:10 0.000847366
7 *130:B *130:A 8.8266e-05
8 *130:D *130:B 0
9 *132:B *130:B 5.33085e-05
10 *132:B *14:21 0.000185405
11 *132:C *14:10 1.33293e-05
12 *132:C *14:21 5.34747e-05
13 *12:10 *14:21 0
14 *12:19 *130:B 0
15 *12:19 *14:21 0
16 *13:34 *130:B 0.000336987
*RES
1 *136:X *14:10 8.635 
2 *14:10 *129:A 1.6 
3 *14:10 *14:21 8.54 
4 *14:21 *133:B 3.6 
5 *14:21 *130:B 9.375 
*END

*D_NET *15 0.00311596
*CONN
*I *133:A I *D sky130_fd_sc_hd__and4_1
*I *130:A I *D sky130_fd_sc_hd__and4_1
*I *131:A1 I *D sky130_fd_sc_hd__o21ba_1
*I *132:A I *D sky130_fd_sc_hd__and3_1
*I *137:X O *D sky130_fd_sc_hd__buf_1
*CAP
1 *133:A 0.000334053
2 *130:A 9.02161e-05
3 *131:A1 0
4 *132:A 0.000299778
5 *137:X 0.000425849
6 *15:23 0.000173952
7 *15:8 0.000383514
8 *15:6 0.000759902
9 *130:A *16:8 2.75229e-05
10 *130:B *130:A 8.8266e-05
11 *130:D *132:A 3.85797e-05
12 *130:D *15:23 5.4256e-05
13 *131:A2 *15:23 5.53249e-06
14 *133:D *133:A 0.000107704
15 *12:19 *132:A 4.7043e-05
16 *13:23 *130:A 0.000164874
17 *13:34 *130:A 0.000114912
*RES
1 *137:X *15:6 6.19 
2 *15:6 *15:8 2 
3 *15:8 *132:A 8.52 
4 *15:8 *15:23 3.635 
5 *15:23 *131:A1 1.6 
6 *15:23 *130:A 4.48 
7 *15:6 *133:A 5.86 
*END

*D_NET *16 0.00069018
*CONN
*I *131:B1_N I *D sky130_fd_sc_hd__o21ba_1
*I *138:A I *D sky130_fd_sc_hd__buf_2
*I *130:X O *D sky130_fd_sc_hd__and4_1
*CAP
1 *131:B1_N 0
2 *138:A 0.000129048
3 *130:X 0.000145268
4 *16:8 0.000274316
5 *138:A *139:A 8.31173e-05
6 *130:A *16:8 2.75229e-05
7 *13:23 *16:8 3.09088e-05
*RES
1 *130:X *16:8 4.135 
2 *16:8 *138:A 4.12 
3 *16:8 *131:B1_N 1.6 
*END

*D_NET *17 0.000797204
*CONN
*I *139:A I *D sky130_fd_sc_hd__buf_2
*I *131:X O *D sky130_fd_sc_hd__o21ba_1
*CAP
1 *139:A 0.000344217
2 *131:X 0.000344217
3 *137:A *139:A 2.56523e-05
4 *138:A *139:A 8.31173e-05
*RES
1 *131:X *139:A 12.45 
*END

*D_NET *18 0.00291581
*CONN
*I *140:A I *D sky130_fd_sc_hd__buf_2
*I *132:X O *D sky130_fd_sc_hd__and3_1
*CAP
1 *140:A 0.00145112
2 *132:X 0.00145112
3 *132:B *140:A 1.35779e-05
*RES
1 *132:X *140:A 20.585 
*END

*D_NET *19 0.00196778
*CONN
*I *141:A I *D sky130_fd_sc_hd__buf_2
*I *133:X O *D sky130_fd_sc_hd__and4_1
*CAP
1 *141:A 0.000983892
2 *133:X 0.000983892
*RES
1 *133:X *141:A 17.795 
*END
