*SPEF "ieee 1481-1999"
*DESIGN "mult4_SarsaNada_e10_SARSA_RUIDO_e9_SARSA_RUIDO_e9_SARSA_RUIDO_e9"
*DATE "14:34:59 Tuesday September 16, 2025"
*VENDOR "The OpenROAD Project"
*PROGRAM "OpenROAD"
*VERSION "edf00dff99f6c40d67a30c0e22a8191c5d2ed9d6"
*DESIGN_FLOW "NAME_SCOPE LOCAL" "PIN_CAP NONE"
*DIVIDER /
*DELIMITER :
*BUS_DELIMITER []
*T_UNIT 1 NS
*C_UNIT 1 PF
*R_UNIT 1 OHM
*L_UNIT 1 HENRY

*NAME_MAP
*1 A[0]
*2 A[1]
*3 A[2]
*4 A[3]
*5 B[0]
*6 B[1]
*7 B[2]
*8 B[3]
*9 P[0]
*10 P[1]
*11 P[2]
*12 P[3]
*13 P[4]
*14 P[5]
*15 P[6]
*16 P[7]
*19 _00_
*20 _01_
*21 _02_
*22 _03_
*23 _04_
*24 _05_
*25 _06_
*26 _07_
*27 _08_
*28 _09_
*29 _10_
*30 _11_
*31 _12_
*32 _13_
*33 _14_
*34 _15_
*35 _16_
*36 _17_
*37 _18_
*38 _19_
*39 _20_
*40 _21_
*41 _22_
*42 _23_
*43 _24_
*44 mul_ll\.pp1
*45 mul_ll\.pp2
*46 net1
*47 net10
*48 net11
*49 net12
*50 net13
*51 net14
*52 net15
*53 net16
*54 net2
*55 net3
*56 net4
*57 net5
*58 net6
*59 net7
*60 net8
*61 net9
*62 FILLER_0_15
*63 FILLER_0_27
*64 FILLER_0_29
*65 FILLER_0_3
*66 FILLER_0_35
*67 FILLER_0_41
*68 FILLER_0_48
*69 FILLER_0_55
*70 FILLER_0_57
*71 FILLER_0_63
*72 FILLER_0_75
*73 FILLER_1_19
*74 FILLER_1_35
*75 FILLER_1_53
*76 FILLER_1_7
*77 FILLER_1_72
*78 FILLER_1_76
*79 FILLER_2_13
*80 FILLER_2_25
*81 FILLER_2_29
*82 FILLER_2_46
*83 FILLER_2_55
*84 FILLER_2_67
*85 FILLER_2_75
*86 FILLER_3_23
*87 FILLER_3_3
*88 FILLER_3_35
*89 FILLER_3_46
*90 FILLER_3_54
*91 FILLER_3_57
*92 FILLER_3_69
*93 FILLER_4_13
*94 FILLER_4_26
*95 FILLER_4_36
*96 FILLER_4_41
*97 FILLER_4_50
*98 FILLER_4_62
*99 FILLER_4_74
*100 FILLER_4_80
*101 FILLER_5_16
*102 FILLER_5_28
*103 FILLER_5_40
*104 FILLER_5_49
*105 FILLER_5_55
*106 FILLER_5_65
*107 FILLER_5_77
*108 FILLER_6_18
*109 FILLER_6_26
*110 FILLER_6_29
*111 FILLER_6_43
*112 FILLER_6_55
*113 FILLER_6_59
*114 FILLER_6_6
*115 FILLER_6_63
*116 FILLER_6_69
*117 FILLER_7_11
*118 FILLER_7_15
*119 FILLER_7_27
*120 FILLER_7_35
*121 FILLER_7_49
*122 FILLER_7_55
*123 FILLER_7_7
*124 FILLER_7_70
*125 FILLER_7_76
*126 FILLER_8_15
*127 FILLER_8_27
*128 FILLER_8_29
*129 FILLER_8_3
*130 FILLER_8_41
*131 FILLER_8_52
*132 FILLER_8_64
*133 FILLER_8_7
*134 FILLER_8_76
*135 FILLER_8_80
*136 FILLER_9_19
*137 FILLER_9_27
*138 FILLER_9_29
*139 FILLER_9_41
*140 FILLER_9_53
*141 FILLER_9_57
*142 FILLER_9_63
*143 FILLER_9_7
*144 FILLER_9_75
*145 PHY_EDGE_ROW_0_Left_10
*146 PHY_EDGE_ROW_0_Right_0
*147 PHY_EDGE_ROW_1_Left_11
*148 PHY_EDGE_ROW_1_Right_1
*149 PHY_EDGE_ROW_2_Left_12
*150 PHY_EDGE_ROW_2_Right_2
*151 PHY_EDGE_ROW_3_Left_13
*152 PHY_EDGE_ROW_3_Right_3
*153 PHY_EDGE_ROW_4_Left_14
*154 PHY_EDGE_ROW_4_Right_4
*155 PHY_EDGE_ROW_5_Left_15
*156 PHY_EDGE_ROW_5_Right_5
*157 PHY_EDGE_ROW_6_Left_16
*158 PHY_EDGE_ROW_6_Right_6
*159 PHY_EDGE_ROW_7_Left_17
*160 PHY_EDGE_ROW_7_Right_7
*161 PHY_EDGE_ROW_8_Left_18
*162 PHY_EDGE_ROW_8_Right_8
*163 PHY_EDGE_ROW_9_Left_19
*164 PHY_EDGE_ROW_9_Right_9
*165 TAP_TAPCELL_ROW_0_20
*166 TAP_TAPCELL_ROW_0_21
*167 TAP_TAPCELL_ROW_1_22
*168 TAP_TAPCELL_ROW_2_23
*169 TAP_TAPCELL_ROW_3_24
*170 TAP_TAPCELL_ROW_4_25
*171 TAP_TAPCELL_ROW_5_26
*172 TAP_TAPCELL_ROW_6_27
*173 TAP_TAPCELL_ROW_7_28
*174 TAP_TAPCELL_ROW_8_29
*175 TAP_TAPCELL_ROW_9_30
*176 TAP_TAPCELL_ROW_9_31
*177 _25_
*178 _26_
*179 _27_
*180 _28_
*181 _29_
*182 _30_
*183 _31_
*184 _32_
*185 _33_
*186 _34_
*187 _35_
*188 _36_
*189 _37_
*190 _38_
*191 _39_
*192 _40_
*193 _41_
*194 _42_
*195 _43_
*196 _44_
*197 _45_
*198 _46_
*199 _47_
*200 _48_
*201 _49_
*202 _50_
*203 _51_
*204 _52_
*205 _53_
*206 _54_
*207 _55_
*208 _56_
*209 _57_
*210 _58_
*211 _59_
*212 input1
*213 input2
*214 input3
*215 input4
*216 input5
*217 input6
*218 input7
*219 input8
*220 output10
*221 output11
*222 output12
*223 output13
*224 output14
*225 output15
*226 output16
*227 output9

*PORTS
A[0] I
A[1] I
A[2] I
A[3] I
B[0] I
B[1] I
B[2] I
B[3] I
P[0] O
P[1] O
P[2] O
P[3] O
P[4] O
P[5] O
P[6] O
P[7] O

*D_NET *1 0.000875278
*CONN
*P A[0] I
*I *212:A I *D sky130_fd_sc_hd__buf_1
*CAP
1 A[0] 0.000432635
2 *212:A 0.000432635
3 *212:A P[1] 0
4 *212:A *214:A 0
5 *212:A *47:14 1.00084e-05
*RES
1 A[0] *212:A 47.4664 
*END

*D_NET *2 0.000747356
*CONN
*P A[1] I
*I *213:A I *D sky130_fd_sc_hd__dlymetal6s2s_1
*CAP
1 A[1] 0.000346167
2 *213:A 0
3 *2:17 0.000346167
4 *2:17 *217:A 2.61329e-05
5 *2:17 *8:17 2.88889e-05
*RES
1 A[1] *2:17 28.2148 
2 *2:17 *213:A 23 
*END

*D_NET *3 0.000859703
*CONN
*P A[2] I
*I *214:A I *D sky130_fd_sc_hd__buf_1
*CAP
1 A[2] 0.000429852
2 *214:A 0.000429852
3 *214:A *218:A 0
4 *212:A *214:A 0
*RES
1 A[2] *214:A 47.4664 
*END

*D_NET *4 0.000565937
*CONN
*P A[3] I
*I *215:A I *D sky130_fd_sc_hd__buf_1
*CAP
1 A[3] 0.000253389
2 *215:A 0.000253389
3 *215:A P[6] 0
4 *215:A P[7] 1.5289e-05
5 *215:A *8:17 2.79122e-05
6 *215:A *16:14 1.59585e-05
*RES
1 A[3] *215:A 47.7832 
*END

*D_NET *5 0.000455257
*CONN
*P B[0] I
*I *216:A I *D sky130_fd_sc_hd__clkbuf_1
*CAP
1 B[0] 0.000191549
2 *216:A 0.000191549
3 *216:A P[2] 7.21596e-05
*RES
1 B[0] *216:A 47.0789 
*END

*D_NET *6 0.000631171
*CONN
*P B[1] I
*I *217:A I *D sky130_fd_sc_hd__dlymetal6s2s_1
*CAP
1 B[1] 0.000289453
2 *217:A 0.000289453
3 *217:A P[0] 1.5289e-05
4 *217:A *9:14 1.0844e-05
5 *2:17 *217:A 2.61329e-05
*RES
1 B[1] *217:A 49.8062 
*END

*D_NET *7 0.000905289
*CONN
*P B[2] I
*I *218:A I *D sky130_fd_sc_hd__buf_1
*CAP
1 B[2] 0.000437952
2 *218:A 0.000437952
3 *218:A *179:B 2.93845e-05
4 *214:A *218:A 0
*RES
1 B[2] *218:A 47.3214 
*END

*D_NET *8 0.00068614
*CONN
*P B[3] I
*I *219:A I *D sky130_fd_sc_hd__dlymetal6s2s_1
*CAP
1 B[3] 0.000314669
2 *219:A 0
3 *8:17 0.000314669
4 *215:A *8:17 2.79122e-05
5 *2:17 *8:17 2.88889e-05
*RES
1 B[3] *8:17 27.5105 
2 *8:17 *219:A 23 
*END

*D_NET *9 0.000694665
*CONN
*P P[0] O
*I *227:X O *D sky130_fd_sc_hd__buf_2
*CAP
1 P[0] 8.68308e-05
2 *227:X 0.000247435
3 *9:14 0.000334266
4 *217:A P[0] 1.5289e-05
5 *217:A *9:14 1.0844e-05
*RES
1 *227:X *9:14 49.9 
2 *9:14 P[0] 0.382667 
*END

*D_NET *10 0.000936389
*CONN
*P P[1] O
*I *220:X O *D sky130_fd_sc_hd__buf_2
*CAP
1 P[1] 0.000468194
2 *220:X 0.000468194
3 *212:A P[1] 0
*RES
1 *220:X P[1] 47.0936 
*END

*D_NET *11 0.000531021
*CONN
*P P[2] O
*I *221:X O *D sky130_fd_sc_hd__buf_2
*CAP
1 P[2] 0.000229431
2 *221:X 0.000229431
3 *216:A P[2] 7.21596e-05
*RES
1 *221:X P[2] 47.1648 
*END

*D_NET *12 0.000531345
*CONN
*P P[3] O
*I *222:X O *D sky130_fd_sc_hd__buf_2
*CAP
1 P[3] 0.000226083
2 *222:X 0.000226083
3 P[3] P[4] 7.91783e-05
*RES
1 *222:X P[3] 47.1648 
*END

*D_NET *13 0.000516814
*CONN
*P P[4] O
*I *223:X O *D sky130_fd_sc_hd__buf_2
*CAP
1 P[4] 0.000218818
2 *223:X 0.000218818
3 P[3] P[4] 7.91783e-05
*RES
1 *223:X P[4] 47.1648 
*END

*D_NET *14 0.00100219
*CONN
*P P[5] O
*I *224:X O *D sky130_fd_sc_hd__buf_2
*CAP
1 P[5] 0.000501094
2 *224:X 0.000501094
*RES
1 *224:X P[5] 48.9786 
*END

*D_NET *15 0.000695583
*CONN
*P P[6] O
*I *225:X O *D sky130_fd_sc_hd__buf_2
*CAP
1 P[6] 0.000337169
2 *225:X 0.000337169
3 P[6] P[7] 2.12457e-05
4 P[6] *52:8 0
5 *215:A P[6] 0
*RES
1 *225:X P[6] 48.5734 
*END

*D_NET *16 0.000762608
*CONN
*P P[7] O
*I *226:X O *D sky130_fd_sc_hd__buf_2
*CAP
1 P[7] 7.65184e-05
2 *226:X 0.000278539
3 *16:14 0.000355058
4 P[6] P[7] 2.12457e-05
5 *215:A P[7] 1.5289e-05
6 *215:A *16:14 1.59585e-05
*RES
1 *226:X *16:14 49.9 
2 *16:14 P[7] 0.382667 
*END

*D_NET *19 0.000724749
*CONN
*I *183:A I *D sky130_fd_sc_hd__xor2_1
*I *179:Y O *D sky130_fd_sc_hd__nand2_1
*CAP
1 *183:A 0
2 *179:Y 0.000362375
3 *19:10 0.000362375
4 *19:10 *57:21 0
*RES
1 *179:Y *19:10 43.2614 
2 *19:10 *183:A 38 
*END

*D_NET *20 0.0011341
*CONN
*I *194:B1 I *D sky130_fd_sc_hd__a32o_1
*I *182:A2 I *D sky130_fd_sc_hd__a21bo_1
*I *180:X O *D sky130_fd_sc_hd__and3_1
*CAP
1 *194:B1 0
2 *182:A2 0.000242882
3 *180:X 0
4 *20:21 0.000102451
5 *20:4 0.000345333
6 *182:A2 *180:B 0
7 *182:A2 *182:A1 9.90162e-05
8 *182:A2 *182:B1_N 0.000228001
9 *20:21 *194:A1 2.39868e-05
10 *20:21 *21:14 3.31683e-05
11 *20:21 *59:23 5.21024e-05
12 *20:21 *59:34 7.15924e-06
*RES
1 *180:X *20:4 23 
2 *20:4 *182:A2 28.7586 
3 *20:4 *20:21 31.8332 
4 *20:21 *194:B1 23 
*END

*D_NET *21 0.00130818
*CONN
*I *182:B1_N I *D sky130_fd_sc_hd__a21bo_1
*I *194:A3 I *D sky130_fd_sc_hd__a32o_1
*I *181:X O *D sky130_fd_sc_hd__a22o_1
*CAP
1 *182:B1_N 0.000120433
2 *194:A3 0
3 *181:X 5.07024e-05
4 *21:14 0.000142553
5 *21:8 0.000313688
6 *182:B1_N *180:B 2.4754e-05
7 *182:B1_N *180:C 2.25517e-05
8 *182:B1_N *182:A1 0.00014196
9 *21:8 *180:A 2.93845e-05
10 *21:8 *180:B 9.32771e-05
11 *21:8 *180:C 1.40958e-05
12 *21:14 *191:A 6.7177e-06
13 *21:14 *55:10 8.68903e-05
14 *21:14 *59:23 0
15 *182:A2 *182:B1_N 0.000228001
16 *20:21 *21:14 3.31683e-05
*RES
1 *181:X *21:8 24.595 
2 *21:8 *21:14 32.9621 
3 *21:14 *194:A3 23 
4 *21:8 *182:B1_N 26.9564 
*END

*D_NET *22 0.000118198
*CONN
*I *183:B I *D sky130_fd_sc_hd__xor2_1
*I *182:X O *D sky130_fd_sc_hd__a21bo_1
*CAP
1 *183:B 5.90989e-05
2 *182:X 5.90989e-05
*RES
1 *182:X *183:B 47.0979 
*END

*D_NET *23 0.00114943
*CONN
*I *207:A I *D sky130_fd_sc_hd__xor2_1
*I *206:A I *D sky130_fd_sc_hd__nor2_1
*I *184:Y O *D sky130_fd_sc_hd__nand2_1
*CAP
1 *207:A 0.000195547
2 *206:A 0
3 *184:Y 0.000252303
4 *23:8 0.00044785
5 *207:A *42:21 0.000167452
6 *23:8 *56:10 8.62783e-05
*RES
1 *184:Y *23:8 43.075 
2 *23:8 *206:A 38 
3 *23:8 *207:A 41.7079 
*END

*D_NET *24 0.000485256
*CONN
*I *198:B1_N I *D sky130_fd_sc_hd__a21boi_1
*I *187:A I *D sky130_fd_sc_hd__nand2_1
*I *185:Y O *D sky130_fd_sc_hd__nand4_1
*CAP
1 *198:B1_N 0
2 *187:A 6.74574e-06
3 *185:Y 0.000110843
4 *24:12 2.09667e-05
5 *24:8 0.000125064
6 *187:A *198:A1 5.67058e-05
7 *187:A *26:8 5.67058e-05
8 *24:8 *185:B 1.14452e-05
9 *24:8 *25:8 0
10 *24:12 *198:A1 5.50049e-05
11 *24:12 *26:8 4.17736e-05
*RES
1 *185:Y *24:8 39.9057 
2 *24:8 *24:12 15.6214 
3 *24:12 *187:A 23.6214 
4 *24:12 *198:B1_N 23 
*END

*D_NET *25 0.000858151
*CONN
*I *198:A1 I *D sky130_fd_sc_hd__a21boi_1
*I *187:B I *D sky130_fd_sc_hd__nand2_1
*I *186:X O *D sky130_fd_sc_hd__a22o_1
*CAP
1 *198:A1 0.000149184
2 *187:B 0
3 *186:X 8.99138e-05
4 *25:10 0.000149184
5 *25:8 8.99138e-05
6 *198:A1 *198:A2 3.91386e-05
7 *198:A1 *26:8 9.74722e-05
8 *198:A1 *36:8 5.70419e-05
9 *25:8 *185:B 4.21594e-06
10 *25:8 *56:18 7.03766e-05
11 *187:A *198:A1 5.67058e-05
12 *24:8 *25:8 0
13 *24:12 *198:A1 5.50049e-05
*RES
1 *186:X *25:8 39.9057 
2 *25:8 *25:10 15 
3 *25:10 *187:B 23 
4 *25:10 *198:A1 27.4743 
*END

*D_NET *26 0.000964915
*CONN
*I *189:A I *D sky130_fd_sc_hd__xnor2_1
*I *187:Y O *D sky130_fd_sc_hd__nand2_1
*CAP
1 *189:A 0
2 *187:Y 0.000301829
3 *26:8 0.000301829
4 *26:8 *198:A2 0.000156058
5 *26:8 *36:8 9.24795e-06
6 *187:A *26:8 5.67058e-05
7 *198:A1 *26:8 9.74722e-05
8 *24:12 *26:8 4.17736e-05
*RES
1 *187:Y *26:8 29.8357 
2 *26:8 *189:A 23 
*END

*D_NET *27 0.00237628
*CONN
*I *189:B I *D sky130_fd_sc_hd__xnor2_1
*I *198:A2 I *D sky130_fd_sc_hd__a21boi_1
*I *188:X O *D sky130_fd_sc_hd__and2_1
*CAP
1 *189:B 0
2 *198:A2 7.96209e-05
3 *188:X 0.000350074
4 *27:14 0.000196642
5 *27:10 0.000467095
6 *198:A2 *36:8 0.000180771
7 *27:10 *190:A 0.000351626
8 *27:10 *191:B 0.000191157
9 *27:10 *33:10 0
10 *27:10 *58:33 4.20759e-05
11 *27:10 *59:34 1.32314e-05
12 *27:14 *28:14 0.000187968
13 *27:14 *36:8 7.40718e-05
14 *27:14 *60:46 4.67488e-05
15 *198:A1 *198:A2 3.91386e-05
16 *26:8 *198:A2 0.000156058
*RES
1 *188:X *27:10 45.1257 
2 *27:10 *27:14 18.48 
3 *27:14 *198:A2 26.9771 
4 *27:14 *189:B 23 
*END

*D_NET *28 0.00373563
*CONN
*I *197:A I *D sky130_fd_sc_hd__xnor2_1
*I *202:B1 I *D sky130_fd_sc_hd__o21a_1
*I *205:A1 I *D sky130_fd_sc_hd__a211oi_1
*I *189:Y O *D sky130_fd_sc_hd__xnor2_1
*CAP
1 *197:A 0.000149794
2 *202:B1 0
3 *205:A1 0
4 *189:Y 0.000467241
5 *28:31 0.000734202
6 *28:14 0.00105165
7 *197:A *30:39 9.84851e-05
8 *28:14 *29:8 0.000169674
9 *28:14 *29:21 0.000219882
10 *28:14 *30:59 3.98887e-05
11 *28:14 *36:8 0.000146195
12 *28:14 *37:8 1.47563e-05
13 *28:14 *38:8 0.0001366
14 *28:14 *60:46 1.46286e-05
15 *28:31 *201:A 0.00023274
16 *28:31 *201:B 3.23857e-06
17 *28:31 *205:C1 3.86227e-05
18 *28:31 *30:59 1.7787e-05
19 *28:31 *37:8 1.22803e-05
20 *27:14 *28:14 0.000187968
*RES
1 *189:Y *28:14 49.5379 
2 *28:14 *205:A1 38 
3 *28:14 *28:31 25.5643 
4 *28:31 *202:B1 23 
5 *28:31 *197:A 26.0036 
*END

*D_NET *29 0.00182765
*CONN
*I *200:A I *D sky130_fd_sc_hd__nor2_1
*I *199:A I *D sky130_fd_sc_hd__and2_1
*I *204:A_N I *D sky130_fd_sc_hd__and3b_1
*I *190:Y O *D sky130_fd_sc_hd__nand2_1
*CAP
1 *200:A 0.00012625
2 *199:A 0.000106048
3 *204:A_N 0.000107285
4 *190:Y 5.04181e-05
5 *29:21 0.000308597
6 *29:8 0.000234003
7 *199:A *199:B 5.56279e-05
8 *199:A *200:B 5.3304e-05
9 *200:A *200:B 4.08664e-05
10 *29:8 *36:12 0.000169674
11 *29:21 *36:12 0.000186025
12 *28:14 *29:8 0.000169674
13 *28:14 *29:21 0.000219882
*RES
1 *190:Y *29:8 40.2579 
2 *29:8 *204:A_N 39.5743 
3 *29:8 *29:21 17.9621 
4 *29:21 *199:A 25.0507 
5 *29:21 *200:A 25.0714 
*END

*D_NET *30 0.00430288
*CONN
*I *205:A2 I *D sky130_fd_sc_hd__a211oi_1
*I *196:A I *D sky130_fd_sc_hd__nor2_1
*I *202:A1 I *D sky130_fd_sc_hd__o21a_1
*I *193:A I *D sky130_fd_sc_hd__nor2_1
*I *191:X O *D sky130_fd_sc_hd__and4_1
*CAP
1 *205:A2 0
2 *196:A 0
3 *202:A1 0
4 *193:A 0
5 *191:X 0.000460067
6 *30:59 0.000370865
7 *30:39 0.000178591
8 *30:31 0.000482126
9 *30:27 0.000921391
10 *30:18 0.000707057
11 *30:18 *191:B 4.34559e-05
12 *30:18 *31:10 8.76088e-05
13 *30:18 *60:53 9.41704e-05
14 *30:27 *32:8 4.08537e-05
15 *30:27 *33:10 5.93981e-05
16 *30:27 *41:8 0.00014411
17 *30:39 *202:A2 0.00015954
18 *30:39 *34:8 1.01436e-05
19 *30:39 *35:10 0
20 *30:59 *205:C1 0.000229122
21 *30:59 *41:8 0.00015822
22 *197:A *30:39 9.84851e-05
23 *28:14 *30:59 3.98887e-05
24 *28:31 *30:59 1.7787e-05
*RES
1 *191:X *30:18 46.4514 
2 *30:18 *193:A 38 
3 *30:18 *30:27 5.77929 
4 *30:27 *30:31 20.3857 
5 *30:31 *30:39 34.06 
6 *30:39 *202:A1 23 
7 *30:31 *196:A 23 
8 *30:27 *30:59 36.4629 
9 *30:59 *205:A2 38 
*END

*D_NET *31 0.00140153
*CONN
*I *193:B I *D sky130_fd_sc_hd__nor2_1
*I *192:Y O *D sky130_fd_sc_hd__a22oi_1
*CAP
1 *193:B 0
2 *192:Y 0.000285993
3 *31:10 0.000285993
4 *31:10 *191:A 3.46795e-05
5 *31:10 *192:A2 0.000125247
6 *31:10 *33:10 0.000354778
7 *31:10 *58:33 7.51453e-06
8 *31:10 *58:42 3.43522e-05
9 *31:10 *59:34 0.00018536
10 *30:18 *31:10 8.76088e-05
*RES
1 *192:Y *31:10 45.4779 
2 *31:10 *193:B 38 
*END

*D_NET *32 0.00151837
*CONN
*I *208:A I *D sky130_fd_sc_hd__nor2_1
*I *195:A I *D sky130_fd_sc_hd__and2_1
*I *204:B I *D sky130_fd_sc_hd__and3b_1
*I *193:Y O *D sky130_fd_sc_hd__nor2_1
*CAP
1 *208:A 0.000101462
2 *195:A 0
3 *204:B 0
4 *193:Y 4.50565e-05
5 *32:23 0.000381813
6 *32:12 0.000324455
7 *32:8 8.91611e-05
8 *208:A *208:B 8.41715e-05
9 *208:A *33:16 0.00010018
10 *32:8 *33:10 8.62783e-05
11 *32:23 *33:16 0.000264934
12 *30:27 *32:8 4.08537e-05
*RES
1 *193:Y *32:8 39.2014 
2 *32:8 *32:12 15.6214 
3 *32:12 *204:B 23 
4 *32:12 *32:23 6.38 
5 *32:23 *195:A 23 
6 *32:23 *208:A 26.0243 
*END

*D_NET *33 0.00286859
*CONN
*I *204:C I *D sky130_fd_sc_hd__and3b_1
*I *208:B I *D sky130_fd_sc_hd__nor2_1
*I *195:B I *D sky130_fd_sc_hd__and2_1
*I *194:X O *D sky130_fd_sc_hd__a32o_1
*CAP
1 *204:C 0
2 *208:B 0.000137523
3 *195:B 0
4 *194:X 0.000436022
5 *33:16 0.000411113
6 *33:12 0.00027359
7 *33:10 0.000436022
8 *208:B *43:10 5.67058e-05
9 *33:10 *191:A 0.000114566
10 *33:10 *59:34 5.3304e-05
11 *208:A *208:B 8.41715e-05
12 *208:A *33:16 0.00010018
13 *27:10 *33:10 0
14 *30:27 *33:10 5.93981e-05
15 *31:10 *33:10 0.000354778
16 *32:8 *33:10 8.62783e-05
17 *32:23 *33:16 0.000264934
*RES
1 *194:X *33:10 46.8657 
2 *33:10 *33:12 15 
3 *33:12 *33:16 6.83571 
4 *33:16 *195:B 23 
5 *33:16 *208:B 26.5214 
6 *33:12 *204:C 23 
*END

*D_NET *34 0.000865811
*CONN
*I *202:A2 I *D sky130_fd_sc_hd__o21a_1
*I *209:A I *D sky130_fd_sc_hd__nor2_1
*I *196:B I *D sky130_fd_sc_hd__nor2_1
*I *195:X O *D sky130_fd_sc_hd__and2_1
*CAP
1 *202:A2 7.33239e-05
2 *209:A 8.92745e-05
3 *196:B 0
4 *195:X 0.000108309
5 *34:12 0.000129451
6 *34:8 0.00022181
7 *202:A2 *35:10 2.79004e-05
8 *209:A *35:10 4.06849e-05
9 *34:8 *43:10 0
10 *34:12 *35:10 5.37348e-06
11 *30:39 *202:A2 0.00015954
12 *30:39 *34:8 1.01436e-05
*RES
1 *195:X *34:8 39.9057 
2 *34:8 *34:12 15.6214 
3 *34:12 *196:B 23 
4 *34:12 *209:A 25.0507 
5 *34:8 *202:A2 40.2579 
*END

*D_NET *35 0.000414446
*CONN
*I *197:B I *D sky130_fd_sc_hd__xnor2_1
*I *196:Y O *D sky130_fd_sc_hd__nor2_1
*CAP
1 *197:B 0
2 *196:Y 0.000170244
3 *35:10 0.000170244
4 *202:A2 *35:10 2.79004e-05
5 *209:A *35:10 4.06849e-05
6 *30:39 *35:10 0
7 *34:12 *35:10 5.37348e-06
*RES
1 *196:Y *35:10 41.0036 
2 *35:10 *197:B 38 
*END

*D_NET *36 0.00246166
*CONN
*I *200:B I *D sky130_fd_sc_hd__nor2_1
*I *199:B I *D sky130_fd_sc_hd__and2_1
*I *198:Y O *D sky130_fd_sc_hd__a21boi_1
*CAP
1 *200:B 6.10001e-05
2 *199:B 2.98451e-05
3 *198:Y 0.000471265
4 *36:12 0.000273151
5 *36:8 0.000653571
6 *198:A1 *36:8 5.70419e-05
7 *198:A2 *36:8 0.000180771
8 *199:A *199:B 5.56279e-05
9 *199:A *200:B 5.3304e-05
10 *200:A *200:B 4.08664e-05
11 *26:8 *36:8 9.24795e-06
12 *27:14 *36:8 7.40718e-05
13 *28:14 *36:8 0.000146195
14 *29:8 *36:12 0.000169674
15 *29:21 *36:12 0.000186025
*RES
1 *198:Y *36:8 45.7679 
2 *36:8 *36:12 19.7229 
3 *36:12 *199:B 23.6214 
4 *36:12 *200:B 24.0979 
*END

*D_NET *37 0.00107033
*CONN
*I *201:A I *D sky130_fd_sc_hd__or2_1
*I *199:X O *D sky130_fd_sc_hd__and2_1
*CAP
1 *201:A 0.000123917
2 *199:X 0.000140993
3 *37:8 0.000264911
4 *201:A *201:B 9.4618e-05
5 *201:A *205:C1 4.51556e-05
6 *37:8 *38:8 0.000140958
7 *28:14 *37:8 1.47563e-05
8 *28:31 *201:A 0.00023274
9 *28:31 *37:8 1.22803e-05
*RES
1 *199:X *37:8 40.61 
2 *37:8 *201:A 41.48 
*END

*D_NET *38 0.000848948
*CONN
*I *201:B I *D sky130_fd_sc_hd__or2_1
*I *205:B1 I *D sky130_fd_sc_hd__a211oi_1
*I *200:Y O *D sky130_fd_sc_hd__nor2_1
*CAP
1 *201:B 9.05529e-05
2 *205:B1 0
3 *200:Y 5.5311e-05
4 *38:10 9.05529e-05
5 *38:8 5.5311e-05
6 *201:B *205:C1 0.000181805
7 *201:A *201:B 9.4618e-05
8 *28:14 *38:8 0.0001366
9 *28:31 *201:B 3.23857e-06
10 *37:8 *38:8 0.000140958
*RES
1 *200:Y *38:8 39.9057 
2 *38:8 *38:10 15 
3 *38:10 *205:B1 23 
4 *38:10 *201:B 25.5479 
*END

*D_NET *39 0.000341948
*CONN
*I *203:A I *D sky130_fd_sc_hd__xnor2_1
*I *201:X O *D sky130_fd_sc_hd__or2_1
*CAP
1 *203:A 2.95294e-05
2 *201:X 0.000113942
3 *39:8 0.000143472
4 *203:A *203:B 5.50049e-05
5 *39:8 *40:8 0
*RES
1 *201:X *39:8 39.9057 
2 *39:8 *203:A 38.6214 
*END

*D_NET *40 0.000900813
*CONN
*I *203:B I *D sky130_fd_sc_hd__xnor2_1
*I *202:X O *D sky130_fd_sc_hd__o21a_1
*CAP
1 *203:B 0.000293107
2 *202:X 0.000129797
3 *40:8 0.000422904
4 *203:A *203:B 5.50049e-05
5 *39:8 *40:8 0
*RES
1 *202:X *40:8 40.2579 
2 *40:8 *203:B 43.3857 
*END

*D_NET *41 0.00157388
*CONN
*I *205:C1 I *D sky130_fd_sc_hd__a211oi_1
*I *204:X O *D sky130_fd_sc_hd__and3b_1
*CAP
1 *205:C1 0.000196472
2 *204:X 0.000191949
3 *41:8 0.000388421
4 *201:A *205:C1 4.51556e-05
5 *201:B *205:C1 0.000181805
6 *28:31 *205:C1 3.86227e-05
7 *30:27 *41:8 0.00014411
8 *30:59 *205:C1 0.000229122
9 *30:59 *41:8 0.00015822
*RES
1 *204:X *41:8 42.3707 
2 *41:8 *205:C1 42.93 
*END

*D_NET *42 0.00204525
*CONN
*I *207:B I *D sky130_fd_sc_hd__xor2_1
*I *206:B I *D sky130_fd_sc_hd__nor2_1
*I *205:Y O *D sky130_fd_sc_hd__a211oi_1
*CAP
1 *207:B 0
2 *206:B 5.37224e-05
3 *205:Y 0.000755413
4 *42:21 0.000113621
5 *42:6 0.000922757
6 *206:B *226:A 3.22879e-05
7 *207:A *42:21 0.000167452
*RES
1 *205:Y *42:6 35.0557 
2 *42:6 *206:B 24.1186 
3 *42:6 *42:21 32.61 
4 *42:21 *207:B 23 
*END

*D_NET *43 0.000650187
*CONN
*I *209:B I *D sky130_fd_sc_hd__nor2_1
*I *208:Y O *D sky130_fd_sc_hd__nor2_1
*CAP
1 *209:B 0
2 *208:Y 0.00029674
3 *43:10 0.00029674
4 *208:B *43:10 5.67058e-05
5 *34:8 *43:10 0
*RES
1 *208:Y *43:10 42.4329 
2 *43:10 *209:B 38 
*END

*D_NET *44 0.000107825
*CONN
*I *211:A I *D sky130_fd_sc_hd__clkbuf_1
*I *178:X O *D sky130_fd_sc_hd__and2_1
*CAP
1 *211:A 9.12368e-06
2 *178:X 9.12368e-06
3 *211:A *178:B 5.73309e-05
4 *211:A *54:24 3.22465e-05
*RES
1 *178:X *211:A 46.6214 
*END

*D_NET *45 0.000305889
*CONN
*I *210:A I *D sky130_fd_sc_hd__clkbuf_1
*I *177:Y O *D sky130_fd_sc_hd__inv_2
*CAP
1 *210:A 4.95791e-05
2 *177:Y 4.95791e-05
3 *210:A *54:24 0.00010655
4 *210:A *61:10 0.00010018
*RES
1 *177:Y *210:A 48.0507 
*END

*D_NET *46 0.00357246
*CONN
*I *191:B I *D sky130_fd_sc_hd__and4_1
*I *192:B2 I *D sky130_fd_sc_hd__a22oi_1
*I *180:C I *D sky130_fd_sc_hd__and3_1
*I *181:B1 I *D sky130_fd_sc_hd__a22o_1
*I *178:B I *D sky130_fd_sc_hd__and2_1
*I *212:X O *D sky130_fd_sc_hd__buf_1
*CAP
1 *191:B 0.000221396
2 *192:B2 0
3 *180:C 0.000275321
4 *181:B1 0
5 *178:B 0.000282231
6 *212:X 0.000143725
7 *46:37 0.000318185
8 *46:21 0.000346354
9 *46:10 0.000353263
10 *46:8 0.000240514
11 *178:B *54:24 0.000144181
12 *178:B *59:42 5.3304e-05
13 *180:C *180:A 0.000194735
14 *180:C *54:24 7.53303e-06
15 *191:B *190:A 2.9991e-05
16 *191:B *60:53 5.3304e-05
17 *191:B *60:61 0.000242983
18 *46:8 *47:14 4.08537e-05
19 *46:8 *59:42 3.47781e-05
20 *46:21 *54:24 3.18142e-05
21 *46:21 *59:42 4.3198e-05
22 *46:37 *55:46 2.16985e-05
23 *46:37 *59:42 0.000153218
24 *46:37 *60:61 1.12863e-05
25 *182:B1_N *180:C 2.25517e-05
26 *211:A *178:B 5.73309e-05
27 *21:8 *180:C 1.40958e-05
28 *27:10 *191:B 0.000191157
29 *30:18 *191:B 4.34559e-05
*RES
1 *212:X *46:8 40.61 
2 *46:8 *46:10 15 
3 *46:10 *178:B 28.8829 
4 *46:10 *46:21 1.57429 
5 *46:21 *181:B1 23 
6 *46:21 *180:C 27.06 
7 *46:8 *46:37 2.25786 
8 *46:37 *192:B2 38 
9 *46:37 *191:B 43.2407 
*END

*D_NET *47 0.000998986
*CONN
*I *220:A I *D sky130_fd_sc_hd__buf_2
*I *211:X O *D sky130_fd_sc_hd__clkbuf_1
*CAP
1 *220:A 8.90456e-05
2 *211:X 0.000291366
3 *47:14 0.000380411
4 *47:14 *54:24 0.000187301
5 *47:14 *55:10 0
6 *212:A *47:14 1.00084e-05
7 *46:8 *47:14 4.08537e-05
*RES
1 *211:X *47:14 43.075 
2 *47:14 *220:A 39.5743 
*END

*D_NET *48 0.000370336
*CONN
*I *221:A I *D sky130_fd_sc_hd__buf_2
*I *183:X O *D sky130_fd_sc_hd__xor2_1
*CAP
1 *221:A 0.000185168
2 *183:X 0.000185168
*RES
1 *183:X *221:A 49.5007 
*END

*D_NET *49 0.00058973
*CONN
*I *222:A I *D sky130_fd_sc_hd__buf_2
*I *209:Y O *D sky130_fd_sc_hd__nor2_1
*CAP
1 *222:A 0
2 *209:Y 0.000294865
3 *49:8 0.000294865
*RES
1 *209:Y *49:8 28.4064 
2 *49:8 *222:A 23 
*END

*D_NET *50 0.000506189
*CONN
*I *223:A I *D sky130_fd_sc_hd__buf_2
*I *197:Y O *D sky130_fd_sc_hd__xnor2_1
*CAP
1 *223:A 0
2 *197:Y 0.000253095
3 *50:8 0.000253095
*RES
1 *197:Y *50:8 27.8057 
2 *50:8 *223:A 23 
*END

*D_NET *51 0.000727205
*CONN
*I *224:A I *D sky130_fd_sc_hd__buf_2
*I *203:Y O *D sky130_fd_sc_hd__xnor2_1
*CAP
1 *224:A 0.000221948
2 *203:Y 0.000141654
3 *51:8 0.000363602
*RES
1 *203:Y *51:8 40.61 
2 *51:8 *224:A 41.9564 
*END

*D_NET *52 0.000388654
*CONN
*I *225:A I *D sky130_fd_sc_hd__buf_2
*I *207:X O *D sky130_fd_sc_hd__xor2_1
*CAP
1 *225:A 6.80978e-05
2 *207:X 0.000126229
3 *52:8 0.000194327
4 P[6] *52:8 0
*RES
1 *207:X *52:8 40.2579 
2 *52:8 *225:A 39.0979 
*END

*D_NET *53 0.000432373
*CONN
*I *226:A I *D sky130_fd_sc_hd__buf_2
*I *206:Y O *D sky130_fd_sc_hd__nor2_1
*CAP
1 *226:A 0.000200043
2 *206:Y 0.000200043
3 *206:B *226:A 3.22879e-05
*RES
1 *206:Y *226:A 49.9771 
*END

*D_NET *54 0.00551181
*CONN
*I *186:A1 I *D sky130_fd_sc_hd__a22o_1
*I *185:A I *D sky130_fd_sc_hd__nand4_1
*I *177:A I *D sky130_fd_sc_hd__inv_2
*I *180:A I *D sky130_fd_sc_hd__and3_1
*I *181:A1 I *D sky130_fd_sc_hd__a22o_1
*I *213:X O *D sky130_fd_sc_hd__dlymetal6s2s_1
*CAP
1 *186:A1 3.56261e-05
2 *185:A 0.000339699
3 *177:A 0
4 *180:A 7.77714e-05
5 *181:A1 0
6 *213:X 0.000280906
7 *54:24 0.000797274
8 *54:18 0.000981221
9 *54:12 0.000656537
10 *54:10 0.000371651
11 *180:A *180:B 1.29101e-05
12 *180:A *181:A2 5.56279e-05
13 *185:A *58:16 0.000357631
14 *185:A *60:29 4.00259e-06
15 *185:A *60:36 3.34247e-05
16 *186:A1 *185:D 5.67058e-05
17 *186:A1 *58:16 5.41385e-05
18 *54:10 *60:23 9.5158e-05
19 *54:12 *185:B 0
20 *54:12 *186:B2 6.48142e-05
21 *54:12 *58:10 2.55642e-05
22 *54:12 *60:23 2.76611e-06
23 *54:18 *178:A 0
24 *54:18 *58:10 0.000141888
25 *54:18 *58:18 0
26 *54:18 *61:10 5.50106e-05
27 *54:24 *178:A 0.000180812
28 *54:24 *180:B 3.20961e-05
29 *54:24 *59:42 5.25435e-05
30 *54:24 *61:10 1.22822e-05
31 *178:B *54:24 0.000144181
32 *180:C *180:A 0.000194735
33 *180:C *54:24 7.53303e-06
34 *210:A *54:24 0.00010655
35 *211:A *54:24 3.22465e-05
36 *21:8 *180:A 2.93845e-05
37 *46:21 *54:24 3.18142e-05
38 *47:14 *54:24 0.000187301
*RES
1 *213:X *54:10 43.6136 
2 *54:10 *54:12 1.20143 
3 *54:12 *54:18 20.3443 
4 *54:18 *54:24 16.6129 
5 *54:24 *181:A1 23 
6 *54:24 *180:A 25.5479 
7 *54:18 *177:A 23 
8 *54:12 *185:A 43.7586 
9 *54:10 *186:A1 39.0979 
*END

*D_NET *55 0.00521122
*CONN
*I *179:B I *D sky130_fd_sc_hd__nand2_1
*I *194:A2 I *D sky130_fd_sc_hd__a32o_1
*I *192:A2 I *D sky130_fd_sc_hd__a22oi_1
*I *191:C I *D sky130_fd_sc_hd__and4_1
*I *190:A I *D sky130_fd_sc_hd__nand2_1
*I *188:B I *D sky130_fd_sc_hd__and2_1
*I *214:X O *D sky130_fd_sc_hd__buf_1
*CAP
1 *179:B 0.000410688
2 *194:A2 8.65699e-05
3 *192:A2 5.32133e-05
4 *191:C 0
5 *190:A 0.00023639
6 *188:B 0
7 *214:X 0
8 *55:46 0.000173567
9 *55:20 0.000460029
10 *55:14 0.000581909
11 *55:10 0.00064737
12 *55:4 0.000733572
13 *190:A *59:42 5.58975e-06
14 *190:A *60:46 0.000164851
15 *192:A2 *194:A1 0
16 *192:A2 *58:42 8.2674e-05
17 *194:A2 *59:34 4.56338e-05
18 *55:10 *191:A 1.01436e-05
19 *55:10 *58:46 0.00015795
20 *55:10 *59:8 0
21 *55:10 *59:23 0
22 *55:14 *194:A1 0
23 *55:14 *58:33 5.53064e-05
24 *55:14 *58:42 0.000130421
25 *55:20 *58:33 0.00022245
26 *55:20 *59:42 2.72882e-05
27 *55:46 *191:A 4.00486e-05
28 *55:46 *58:46 0
29 *55:46 *60:61 0.000240721
30 *191:B *190:A 2.9991e-05
31 *218:A *179:B 2.93845e-05
32 *21:14 *55:10 8.68903e-05
33 *27:10 *190:A 0.000351626
34 *31:10 *192:A2 0.000125247
35 *46:37 *55:46 2.16985e-05
36 *47:14 *55:10 0
*RES
1 *214:X *55:4 23 
2 *55:4 *55:10 34.7229 
3 *55:10 *55:14 3.02429 
4 *55:14 *55:20 18.3764 
5 *55:20 *188:B 38 
6 *55:20 *190:A 44.5457 
7 *55:14 *55:46 34.0186 
8 *55:46 *191:C 23 
9 *55:10 *192:A2 24.885 
10 *55:10 *194:A2 24.5743 
11 *55:4 *179:B 30.1879 
*END

*D_NET *56 0.00240209
*CONN
*I *184:B I *D sky130_fd_sc_hd__nand2_1
*I *185:D I *D sky130_fd_sc_hd__nand4_1
*I *186:B1 I *D sky130_fd_sc_hd__a22o_1
*I *215:X O *D sky130_fd_sc_hd__buf_1
*CAP
1 *184:B 0
2 *185:D 8.85457e-05
3 *186:B1 0
4 *215:X 0.000474436
5 *56:18 0.000352179
6 *56:10 0.00073807
7 *185:D *58:16 1.22822e-05
8 *185:D *60:29 0.000139727
9 *56:18 *60:23 0.000383494
10 *186:A1 *185:D 5.67058e-05
11 *23:8 *56:10 8.62783e-05
12 *25:8 *56:18 7.03766e-05
*RES
1 *215:X *56:10 44.815 
2 *56:10 *56:18 21.67 
3 *56:18 *186:B1 23 
4 *56:18 *185:D 26.1693 
5 *56:10 *184:B 38 
*END

*D_NET *57 0.00276912
*CONN
*I *179:A I *D sky130_fd_sc_hd__nand2_1
*I *194:A1 I *D sky130_fd_sc_hd__a32o_1
*I *216:X O *D sky130_fd_sc_hd__clkbuf_1
*CAP
1 *179:A 0
2 *194:A1 0.000443073
3 *216:X 0.000579234
4 *57:21 0.000334976
5 *57:6 0.00135728
6 *194:A1 *59:34 3.05695e-05
7 *57:21 *59:8 0
8 *57:21 *59:23 0
9 *192:A2 *194:A1 0
10 *19:10 *57:21 0
11 *20:21 *194:A1 2.39868e-05
12 *55:14 *194:A1 0
*RES
1 *216:X *57:6 30.7679 
2 *57:6 *194:A1 28.8829 
3 *57:6 *57:21 35.075 
4 *57:21 *179:A 23 
*END

*D_NET *58 0.00641181
*CONN
*I *186:B2 I *D sky130_fd_sc_hd__a22o_1
*I *185:B I *D sky130_fd_sc_hd__nand4_1
*I *191:A I *D sky130_fd_sc_hd__and4_1
*I *180:B I *D sky130_fd_sc_hd__and3_1
*I *181:A2 I *D sky130_fd_sc_hd__a22o_1
*I *192:A1 I *D sky130_fd_sc_hd__a22oi_1
*I *178:A I *D sky130_fd_sc_hd__and2_1
*I *217:X O *D sky130_fd_sc_hd__dlymetal6s2s_1
*CAP
1 *186:B2 3.013e-05
2 *185:B 9.27335e-05
3 *191:A 0.000186541
4 *180:B 0.000175803
5 *181:A2 1.97906e-05
6 *192:A1 0
7 *178:A 0.000266168
8 *217:X 0.000235643
9 *58:46 0.000337835
10 *58:42 0.000358339
11 *58:33 0.000610685
12 *58:18 0.00102903
13 *58:16 0.000383686
14 *58:10 0.000374989
15 *185:B *60:23 0
16 *58:16 *60:29 0.000187129
17 *58:16 *60:36 2.18409e-05
18 *58:33 *59:34 3.5484e-05
19 *58:33 *60:61 5.56279e-05
20 *180:A *180:B 1.29101e-05
21 *180:A *181:A2 5.56279e-05
22 *182:A2 *180:B 0
23 *182:B1_N *180:B 2.4754e-05
24 *185:A *58:16 0.000357631
25 *185:D *58:16 1.22822e-05
26 *186:A1 *58:16 5.41385e-05
27 *192:A2 *58:42 8.2674e-05
28 *21:8 *180:B 9.32771e-05
29 *21:14 *191:A 6.7177e-06
30 *24:8 *185:B 1.14452e-05
31 *25:8 *185:B 4.21594e-06
32 *27:10 *58:33 4.20759e-05
33 *31:10 *191:A 3.46795e-05
34 *31:10 *58:33 7.51453e-06
35 *31:10 *58:42 3.43522e-05
36 *33:10 *191:A 0.000114566
37 *54:12 *185:B 0
38 *54:12 *186:B2 6.48142e-05
39 *54:12 *58:10 2.55642e-05
40 *54:18 *178:A 0
41 *54:18 *58:10 0.000141888
42 *54:18 *58:18 0
43 *54:24 *178:A 0.000180812
44 *54:24 *180:B 3.20961e-05
45 *55:10 *191:A 1.01436e-05
46 *55:10 *58:46 0.00015795
47 *55:14 *58:33 5.53064e-05
48 *55:14 *58:42 0.000130421
49 *55:20 *58:33 0.00022245
50 *55:46 *191:A 4.00486e-05
51 *55:46 *58:46 0
*RES
1 *217:X *58:10 42.785 
2 *58:10 *58:16 34.4329 
3 *58:16 *58:18 2.96214 
4 *58:18 *178:A 43.7379 
5 *58:18 *58:33 26.1029 
6 *58:33 *192:A1 23 
7 *58:33 *58:42 16.5743 
8 *58:42 *58:46 17.2579 
9 *58:46 *181:A2 23.6214 
10 *58:46 *180:B 26.2521 
11 *58:42 *191:A 41.7286 
12 *58:16 *185:B 39.5536 
13 *58:10 *186:B2 38.8493 
*END

*D_NET *59 0.00330522
*CONN
*I *188:A I *D sky130_fd_sc_hd__and2_1
*I *181:B2 I *D sky130_fd_sc_hd__a22o_1
*I *194:B2 I *D sky130_fd_sc_hd__a32o_1
*I *182:A1 I *D sky130_fd_sc_hd__a21bo_1
*I *218:X O *D sky130_fd_sc_hd__buf_1
*CAP
1 *188:A 0
2 *181:B2 0
3 *194:B2 0
4 *182:A1 0.000174008
5 *218:X 9.68653e-05
6 *59:42 0.000163791
7 *59:34 0.000631812
8 *59:23 0.000687847
9 *59:8 0.000490699
10 *59:34 *60:61 2.64616e-05
11 *178:B *59:42 5.3304e-05
12 *182:A2 *182:A1 9.90162e-05
13 *182:B1_N *182:A1 0.00014196
14 *190:A *59:42 5.58975e-06
15 *194:A1 *59:34 3.05695e-05
16 *194:A2 *59:34 4.56338e-05
17 *20:21 *59:23 5.21024e-05
18 *20:21 *59:34 7.15924e-06
19 *21:14 *59:23 0
20 *27:10 *59:34 1.32314e-05
21 *31:10 *59:34 0.00018536
22 *33:10 *59:34 5.3304e-05
23 *46:8 *59:42 3.47781e-05
24 *46:21 *59:42 4.3198e-05
25 *46:37 *59:42 0.000153218
26 *54:24 *59:42 5.25435e-05
27 *55:10 *59:8 0
28 *55:10 *59:23 0
29 *55:20 *59:42 2.72882e-05
30 *57:21 *59:8 0