*SPEF "ieee 1481-1999"
*DESIGN "mult4_SarsaNada_e10_SARSA_RUIDO_e9_SARSA_RUIDO_e9_SARSA_RUIDO_e9"
*DATE "14:34:59 Tuesday September 16, 2025"
*VENDOR "The OpenROAD Project"
*PROGRAM "OpenROAD"
*VERSION "edf00dff99f6c40d67a30c0e22a8191c5d2ed9d6"
*DESIGN_FLOW "NAME_SCOPE LOCAL" "PIN_CAP NONE"
*DIVIDER /
*DELIMITER :
*BUS_DELIMITER []
*T_UNIT 1 NS
*C_UNIT 1 PF
*R_UNIT 1 OHM
*L_UNIT 1 HENRY

*NAME_MAP
*1 A[0]
*2 A[1]
*3 A[2]
*4 A[3]
*5 B[0]
*6 B[1]
*7 B[2]
*8 B[3]
*9 P[0]
*10 P[1]
*11 P[2]
*12 P[3]
*13 P[4]
*14 P[5]
*15 P[6]
*16 P[7]
*19 _00_
*20 _01_
*21 _02_
*22 _03_
*23 _04_
*24 _05_
*25 _06_
*26 _07_
*27 _08_
*28 _09_
*29 _10_
*30 _11_
*31 _12_
*32 _13_
*33 _14_
*34 _15_
*35 _16_
*36 _17_
*37 _18_
*38 _19_
*39 _20_
*40 _21_
*41 _22_
*42 _23_
*43 _24_
*44 mul_ll\.pp1
*45 mul_ll\.pp2
*46 net1
*47 net10
*48 net11
*49 net12
*50 net13
*51 net14
*52 net15
*53 net16
*54 net2
*55 net3
*56 net4
*57 net5
*58 net6
*59 net7
*60 net8
*61 net9
*62 FILLER_0_15
*63 FILLER_0_27
*64 FILLER_0_29
*65 FILLER_0_3
*66 FILLER_0_35
*67 FILLER_0_41
*68 FILLER_0_48
*69 FILLER_0_55
*70 FILLER_0_57
*71 FILLER_0_63
*72 FILLER_0_75
*73 FILLER_1_19
*74 FILLER_1_35
*75 FILLER_1_53
*76 FILLER_1_7
*77 FILLER_1_72
*78 FILLER_1_76
*79 FILLER_2_13
*80 FILLER_2_25
*81 FILLER_2_29
*82 FILLER_2_46
*83 FILLER_2_55
*84 FILLER_2_67
*85 FILLER_2_75
*86 FILLER_3_23
*87 FILLER_3_3
*88 FILLER_3_35
*89 FILLER_3_46
*90 FILLER_3_54
*91 FILLER_3_57
*92 FILLER_3_69
*93 FILLER_4_13
*94 FILLER_4_26
*95 FILLER_4_36
*96 FILLER_4_41
*97 FILLER_4_50
*98 FILLER_4_62
*99 FILLER_4_74
*100 FILLER_4_80
*101 FILLER_5_16
*102 FILLER_5_28
*103 FILLER_5_40
*104 FILLER_5_49
*105 FILLER_5_55
*106 FILLER_5_65
*107 FILLER_5_77
*108 FILLER_6_18
*109 FILLER_6_26
*110 FILLER_6_29
*111 FILLER_6_43
*112 FILLER_6_55
*113 FILLER_6_59
*114 FILLER_6_6
*115 FILLER_6_63
*116 FILLER_6_69
*117 FILLER_7_11
*118 FILLER_7_15
*119 FILLER_7_27
*120 FILLER_7_35
*121 FILLER_7_49
*122 FILLER_7_55
*123 FILLER_7_7
*124 FILLER_7_70
*125 FILLER_7_76
*126 FILLER_8_15
*127 FILLER_8_27
*128 FILLER_8_29
*129 FILLER_8_3
*130 FILLER_8_41
*131 FILLER_8_52
*132 FILLER_8_64
*133 FILLER_8_7
*134 FILLER_8_76
*135 FILLER_8_80
*136 FILLER_9_19
*137 FILLER_9_27
*138 FILLER_9_29
*139 FILLER_9_41
*140 FILLER_9_53
*141 FILLER_9_57
*142 FILLER_9_63
*143 FILLER_9_7
*144 FILLER_9_75
*145 PHY_EDGE_ROW_0_Left_10
*146 PHY_EDGE_ROW_0_Right_0
*147 PHY_EDGE_ROW_1_Left_11
*148 PHY_EDGE_ROW_1_Right_1
*149 PHY_EDGE_ROW_2_Left_12
*150 PHY_EDGE_ROW_2_Right_2
*151 PHY_EDGE_ROW_3_Left_13
*152 PHY_EDGE_ROW_3_Right_3
*153 PHY_EDGE_ROW_4_Left_14
*154 PHY_EDGE_ROW_4_Right_4
*155 PHY_EDGE_ROW_5_Left_15
*156 PHY_EDGE_ROW_5_Right_5
*157 PHY_EDGE_ROW_6_Left_16
*158 PHY_EDGE_ROW_6_Right_6
*159 PHY_EDGE_ROW_7_Left_17
*160 PHY_EDGE_ROW_7_Right_7
*161 PHY_EDGE_ROW_8_Left_18
*162 PHY_EDGE_ROW_8_Right_8
*163 PHY_EDGE_ROW_9_Left_19
*164 PHY_EDGE_ROW_9_Right_9
*165 TAP_TAPCELL_ROW_0_20
*166 TAP_TAPCELL_ROW_0_21
*167 TAP_TAPCELL_ROW_1_22
*168 TAP_TAPCELL_ROW_2_23
*169 TAP_TAPCELL_ROW_3_24
*170 TAP_TAPCELL_ROW_4_25
*171 TAP_TAPCELL_ROW_5_26
*172 TAP_TAPCELL_ROW_6_27
*173 TAP_TAPCELL_ROW_7_28
*174 TAP_TAPCELL_ROW_8_29
*175 TAP_TAPCELL_ROW_9_30
*176 TAP_TAPCELL_ROW_9_31
*177 _25_
*178 _26_
*179 _27_
*180 _28_
*181 _29_
*182 _30_
*183 _31_
*184 _32_
*185 _33_
*186 _34_
*187 _35_
*188 _36_
*189 _37_
*190 _38_
*191 _39_
*192 _40_
*193 _41_
*194 _42_
*195 _43_
*196 _44_
*197 _45_
*198 _46_
*199 _47_
*200 _48_
*201 _49_
*202 _50_
*203 _51_
*204 _52_
*205 _53_
*206 _54_
*207 _55_
*208 _56_
*209 _57_
*210 _58_
*211 _59_
*212 input1
*213 input2
*214 input3
*215 input4
*216 input5
*217 input6
*218 input7
*219 input8
*220 output10
*221 output11
*222 output12
*223 output13
*224 output14
*225 output15
*226 output16
*227 output9

*PORTS
A[0] I
A[1] I
A[2] I
A[3] I
B[0] I
B[1] I
B[2] I
B[3] I
P[0] O
P[1] O
P[2] O
P[3] O
P[4] O
P[5] O
P[6] O
P[7] O

*D_NET *1 0.000772568
*CONN
*P A[0] I
*I *212:A I *D sky130_fd_sc_hd__buf_1
*CAP
1 A[0] 0.00038213
2 *212:A 0.00038213
3 *212:A P[1] 0
4 *212:A *214:A 0
5 *212:A *220:A 8.30853e-06
*RES
1 A[0] *212:A 10.455 
*END

*D_NET *2 0.000651011
*CONN
*P A[1] I
*I *213:A I *D sky130_fd_sc_hd__dlymetal6s2s_1
*CAP
1 A[1] 0.000297188
2 *213:A 0.000297188
3 *213:A *217:A 2.69997e-05
4 *213:A *219:A 2.96366e-05
*RES
1 A[1] *213:A 7.8543 
*END

*D_NET *3 0.000765754
*CONN
*P A[2] I
*I *214:A I *D sky130_fd_sc_hd__buf_1
*CAP
1 A[2] 0.000382877
2 *214:A 0.000382877
3 *214:A *218:A 0
4 *212:A *214:A 0
*RES
1 A[2] *214:A 10.455 
*END

*D_NET *4 0.000499847
*CONN
*P A[3] I
*I *215:A I *D sky130_fd_sc_hd__buf_1
*CAP
1 A[3] 0.000219965
2 *215:A 0.000219965
3 *215:A P[6] 0
4 *215:A P[7] 3.14094e-05
5 *215:A *219:A 2.85068e-05
*RES
1 A[3] *215:A 5.35677 
*END

*D_NET *5 0.000408694
*CONN
*P B[0] I
*I *216:A I *D sky130_fd_sc_hd__clkbuf_1
*CAP
1 B[0] 0.000165825
2 *216:A 0.000165825
3 *216:A P[2] 7.70436e-05
*RES
1 B[0] *216:A 4.84677 
*END

*D_NET *6 0.000543312
*CONN
*P B[1] I
*I *217:A I *D sky130_fd_sc_hd__dlymetal6s2s_1
*CAP
1 B[1] 0.000244656
2 *217:A 0.000244656
3 *217:A P[0] 2.69997e-05
4 *213:A *217:A 2.69997e-05
*RES
1 B[1] *217:A 6.8343 
*END

*D_NET *7 0.000794105
*CONN
*P B[2] I
*I *218:A I *D sky130_fd_sc_hd__buf_1
*CAP
1 B[2] 0.000383291
2 *218:A 0.000383291
3 *218:A *179:B 2.75229e-05
4 *214:A *218:A 0
*RES
1 B[2] *218:A 10.35 
*END

*D_NET *8 0.000595152
*CONN
*P B[3] I
*I *219:A I *D sky130_fd_sc_hd__dlymetal6s2s_1
*CAP
1 B[3] 0.000268504
2 *219:A 0.000268504
3 *213:A *219:A 2.96366e-05
4 *215:A *219:A 2.85068e-05
*RES
1 B[3] *219:A 7.3443 
*END

*D_NET *9 0.000601998
*CONN
*P P[0] O
*I *227:X O *D sky130_fd_sc_hd__buf_2
*CAP
1 P[0] 0.000287499
2 *227:X 0.000287499
3 *217:A P[0] 2.69997e-05
*RES
1 *227:X P[0] 7.1793 
*END

*D_NET *10 0.00081412
*CONN
*P P[1] O
*I *220:X O *D sky130_fd_sc_hd__buf_2
*CAP
1 P[1] 0.00040706
2 *220:X 0.00040706
3 *212:A P[1] 0
*RES
1 *220:X P[1] 10.185 
*END

*D_NET *11 0.000470981
*CONN
*P P[2] O
*I *221:X O *D sky130_fd_sc_hd__buf_2
*CAP
1 P[2] 0.000196969
2 *221:X 0.000196969
3 *216:A P[2] 7.70436e-05
*RES
1 *221:X P[2] 4.90503 
*END

*D_NET *12 0.000471537
*CONN
*P P[3] O
*I *222:X O *D sky130_fd_sc_hd__buf_2
*CAP
1 P[3] 0.00019345
2 *222:X 0.00019345
3 P[3] P[4] 8.4638e-05
*RES
1 *222:X P[3] 4.90503 
*END

*D_NET *13 0.000460569
*CONN
*P P[4] O
*I *223:X O *D sky130_fd_sc_hd__buf_2
*CAP
1 P[4] 0.000187966
2 *223:X 0.000187966
3 P[3] P[4] 8.4638e-05
*RES
1 *223:X P[4] 4.90503 
*END

*D_NET *14 0.000894056
*CONN
*P P[5] O
*I *224:X O *D sky130_fd_sc_hd__buf_2
*CAP
1 P[5] 0.000447028
2 *224:X 0.000447028
*RES
1 *224:X P[5] 11.55 
*END

*D_NET *15 0.000596882
*CONN
*P P[6] O
*I *225:X O *D sky130_fd_sc_hd__buf_2
*CAP
1 P[6] 0.000287196
2 *225:X 0.000287196
3 P[6] P[7] 2.24901e-05
4 P[6] *225:A 0
5 *215:A P[6] 0
*RES
1 *225:X P[6] 5.92503 
*END

*D_NET *16 0.000660243
*CONN
*P P[7] O
*I *226:X O *D sky130_fd_sc_hd__buf_2
*CAP
1 P[7] 0.000303172
2 *226:X 0.000303172
3 P[6] P[7] 2.24901e-05
4 *215:A P[7] 3.14094e-05
*RES
1 *226:X P[7] 7.1793 
*END

*D_NET *19 0.000609041
*CONN
*I *183:A I *D sky130_fd_sc_hd__xor2_1
*I *179:Y O *D sky130_fd_sc_hd__nand2_1
*CAP
1 *183:A 0.000304521
2 *179:Y 0.000304521
3 *183:A *179:A 0
*RES
1 *179:Y *183:A 11.01 
*END

*D_NET *20 0.000939405
*CONN
*I *194:B1 I *D sky130_fd_sc_hd__a32o_1
*I *182:A2 I *D sky130_fd_sc_hd__a21bo_1
*I *180:X O *D sky130_fd_sc_hd__and3_1
*CAP
1 *194:B1 6.38452e-05
2 *182:A2 0.000203376
3 *180:X 0
4 *20:4 0.000267222
5 *182:A2 *180:B 0
6 *182:A2 *182:A1 9.21168e-05
7 *182:A2 *182:B1_N 0.000200615
8 *194:B1 *194:A1 2.09749e-05
9 *194:B1 *194:A3 3.47837e-05
10 *194:B1 *59:23 4.94326e-05
11 *194:B1 *59:34 7.03925e-06
*RES
1 *180:X *20:4 1.6 
2 *20:4 *182:A2 5.77 
3 *20:4 *194:B1 6.9275 
*END

*D_NET *21 0.00108254
*CONN
*I *182:B1_N I *D sky130_fd_sc_hd__a21bo_1
*I *194:A3 I *D sky130_fd_sc_hd__a32o_1
*I *181:X O *D sky130_fd_sc_hd__a22o_1
*CAP
1 *182:B1_N 9.78618e-05
2 *194:A3 9.70594e-05
3 *181:X 3.70901e-05
4 *21:8 0.000232011
5 *182:B1_N *180:B 2.30292e-05
6 *182:B1_N *180:C 2.11992e-05
7 *182:B1_N *182:A1 0.0001249
8 *194:A3 *191:A 7.21296e-06
9 *194:A3 *55:10 8.25609e-05
10 *194:A3 *59:23 0
11 *21:8 *180:A 2.75229e-05
12 *21:8 *180:B 8.32411e-05
13 *21:8 *180:C 1.34503e-05
14 *182:A2 *182:B1_N 0.000200615
15 *194:B1 *194:A3 3.47837e-05
*RES
1 *181:X *21:8 2.755 
2 *21:8 *194:A3 7.745 
3 *21:8 *182:B1_N 4.465 
*END

*D_NET *22 0.000105481
*CONN
*I *183:B I *D sky130_fd_sc_hd__xor2_1
*I *182:X O *D sky130_fd_sc_hd__a21bo_1
*CAP
1 *183:B 5.27404e-05
2 *182:X 5.27404e-05
*RES
1 *182:X *183:B 3.995 
*END

*D_NET *23 0.000924718
*CONN
*I *207:A I *D sky130_fd_sc_hd__xor2_1
*I *206:A I *D sky130_fd_sc_hd__nor2_1
*I *184:Y O *D sky130_fd_sc_hd__nand2_1
*CAP
1 *207:A 0.000149291
2 *206:A 0
3 *184:Y 0.000206922
4 *23:8 0.000356213
5 *207:A *207:B 0.00013994
6 *23:8 *56:10 7.23533e-05
*RES
1 *184:Y *23:8 7.275 
2 *23:8 *206:A 3.6 
3 *23:8 *207:A 6.285 
*END

*D_NET *24 0.000399892
*CONN
*I *198:B1_N I *D sky130_fd_sc_hd__a21boi_1
*I *187:A I *D sky130_fd_sc_hd__nand2_1
*I *185:Y O *D sky130_fd_sc_hd__nand4_1
*CAP
1 *198:B1_N 0
2 *187:A 5.81042e-06
3 *185:Y 9.69646e-05
4 *24:12 0.000102775
5 *187:A *189:A 4.99619e-05
6 *187:A *198:A1 4.99619e-05
7 *24:12 *185:B 9.50342e-06
8 *24:12 *189:A 3.66286e-05
9 *24:12 *198:A1 4.82863e-05
10 *24:12 *25:10 0
*RES
1 *185:Y *24:12 7.43 
2 *24:12 *187:A 2.05 
3 *24:12 *198:B1_N 1.6 
*END

*D_NET *25 0.000726138
*CONN
*I *198:A1 I *D sky130_fd_sc_hd__a21boi_1
*I *187:B I *D sky130_fd_sc_hd__nand2_1
*I *186:X O *D sky130_fd_sc_hd__a22o_1
*CAP
1 *198:A1 0.000125111
2 *187:B 0
3 *186:X 6.57072e-05
4 *25:10 0.000190818
5 *198:A1 *189:A 9.07793e-05
6 *198:A1 *198:A2 3.26889e-05
7 *198:A1 *36:12 5.30673e-05
8 *25:10 *185:B 4.18603e-06
9 *25:10 *56:18 6.55328e-05
10 *187:A *198:A1 4.99619e-05
11 *24:12 *198:A1 4.82863e-05
12 *24:12 *25:10 0
*RES
1 *186:X *25:10 6.98 
2 *25:10 *187:B 1.6 
3 *25:10 *198:A1 4.84 
*END

*D_NET *26 0.000856009
*CONN
*I *189:A I *D sky130_fd_sc_hd__xnor2_1
*I *187:Y O *D sky130_fd_sc_hd__nand2_1
*CAP
1 *189:A 0.000262091
2 *187:Y 0.000262091
3 *189:A *198:A2 0.000145184
4 *189:A *36:12 9.27255e-06
5 *187:A *189:A 4.99619e-05
6 *198:A1 *189:A 9.07793e-05
7 *24:12 *189:A 3.66286e-05
*RES
1 *187:Y *189:A 8.15 
*END

*D_NET *27 0.00197163
*CONN
*I *189:B I *D sky130_fd_sc_hd__xnor2_1
*I *198:A2 I *D sky130_fd_sc_hd__a21boi_1
*I *188:X O *D sky130_fd_sc_hd__and2_1
*CAP
1 *189:B 0
2 *198:A2 6.72607e-05
3 *188:X 0.000355333
4 *27:14 0.000422594
5 *198:A2 *36:12 0.000167543
6 *27:14 *190:A 0.000293733
7 *27:14 *190:B 4.41506e-05
8 *27:14 *191:B 0.000159964
9 *27:14 *28:14 0.000161101
10 *27:14 *33:12 0
11 *27:14 *36:12 6.60042e-05
12 *27:14 *58:33 4.44209e-05
13 *27:14 *59:34 1.16578e-05
14 *189:A *198:A2 0.000145184
15 *198:A1 *198:A2 3.26889e-05
*RES
1 *188:X *27:14 13.28 
2 *27:14 *198:A2 4.48 
3 *27:14 *189:B 1.6 
*END

*D_NET *28 0.00310784
*CONN
*I *197:A I *D sky130_fd_sc_hd__xnor2_1
*I *202:B1 I *D sky130_fd_sc_hd__o21a_1
*I *205:A1 I *D sky130_fd_sc_hd__a211oi_1
*I *189:Y O *D sky130_fd_sc_hd__xnor2_1
*CAP
1 *197:A 0.000126896
2 *202:B1 0
3 *205:A1 0
4 *189:Y 0.00036072
5 *28:31 0.000621877
6 *28:14 0.0008557
7 *197:A *202:A1 8.65961e-05
8 *28:14 *190:B 1.41165e-05
9 *28:14 *201:A 1.34361e-05
10 *28:14 *205:A2 3.79351e-05
11 *28:14 *29:8 0.000141599
12 *28:14 *29:21 0.000183738
13 *28:14 *36:12 0.000124473
14 *28:14 *38:10 0.000112279
15 *28:31 *201:A 0.000209905
16 *28:31 *201:B 3.50152e-06
17 *28:31 *205:A2 1.7176e-05
18 *28:31 *205:C1 3.67871e-05
19 *27:14 *28:14 0.000161101
*RES
1 *189:Y *28:14 11.955 
2 *28:14 *205:A1 3.6 
3 *28:14 *28:31 9.65 
4 *28:31 *202:B1 1.6 
5 *28:31 *197:A 3.775 
*END

*D_NET *29 0.00146751
*CONN
*I *200:A I *D sky130_fd_sc_hd__nor2_1
*I *199:A I *D sky130_fd_sc_hd__and2_1
*I *204:A_N I *D sky130_fd_sc_hd__and3b_1
*I *190:Y O *D sky130_fd_sc_hd__nand2_1
*CAP
1 *200:A 9.88734e-05
2 *199:A 8.77741e-05
3 *204:A_N 8.59666e-05
4 *190:Y 3.3769e-05
5 *29:21 0.000237904
6 *29:8 0.000170992
7 *199:A *199:B 4.77719e-05
8 *199:A *200:B 4.66108e-05
9 *200:A *200:B 3.57349e-05
10 *29:8 *36:12 0.000141599
11 *29:21 *36:12 0.000155176
12 *28:14 *29:8 0.000141599
13 *28:14 *29:21 0.000183738
*RES
1 *190:Y *29:8 5.235 
2 *29:8 *204:A_N 4.74 
3 *29:8 *29:21 4.145 
4 *29:21 *199:A 3.085 
5 *29:21 *200:A 3.1 
*END

*D_NET *30 0.00351714
*CONN
*I *205:A2 I *D sky130_fd_sc_hd__a211oi_1
*I *196:A I *D sky130_fd_sc_hd__nor2_1
*I *202:A1 I *D sky130_fd_sc_hd__o21a_1
*I *193:A I *D sky130_fd_sc_hd__nor2_1
*I *191:X O *D sky130_fd_sc_hd__and4_1
*CAP
1 *205:A2 0.000289424
2 *196:A 0
3 *202:A1 0.000138688
4 *193:A 0
5 *191:X 0.000357736
6 *30:31 0.000403327
7 *30:27 0.000744102
8 *30:18 0.000547775
9 *202:A1 *197:B 0
10 *202:A1 *202:A2 0.000133075
11 *202:A1 *34:8 8.53113e-06
12 *205:A2 *205:C1 0.000330341
13 *30:18 *191:B 4.01811e-05
14 *30:18 *193:B 8.08439e-05
15 *30:18 *60:53 8.23457e-05
16 *30:27 *205:C1 0.000120186
17 *30:27 *32:12 3.86529e-05
18 *30:27 *33:12 6.02191e-05
19 *197:A *202:A1 8.65961e-05
20 *28:14 *205:A2 3.79351e-05
21 *28:31 *205:A2 1.7176e-05
*RES
1 *191:X *30:18 9.72 
2 *30:18 *193:A 3.6 
3 *30:18 *30:27 4.185 
4 *30:27 *30:31 5.9 
5 *30:31 *202:A1 8.54 
6 *30:31 *196:A 1.6 
7 *30:27 *205:A2 12.28 
*END

*D_NET *31 0.0011073
*CONN
*I *193:B I *D sky130_fd_sc_hd__nor2_1
*I *192:Y O *D sky130_fd_sc_hd__a22oi_1
*CAP
1 *193:B 0.000197959
2 *192:Y 0.000197959
3 *193:B *191:A 3.05957e-05
4 *193:B *192:A2 0.000108022
5 *193:B *33:12 0.000296088
6 *193:B *58:33 6.69608e-06
7 *193:B *58:42 3.06107e-05
8 *193:B *59:34 0.000158532
9 *30:18 *193:B 8.08439e-05
*RES
1 *192:Y *193:B 12.615 
*END

*D_NET *32 0.00129785
*CONN
*I *208:A I *D sky130_fd_sc_hd__nor2_1
*I *195:A I *D sky130_fd_sc_hd__and2_1
*I *204:B I *D sky130_fd_sc_hd__and3b_1
*I *193:Y O *D sky130_fd_sc_hd__nor2_1
*CAP
1 *208:A 8.82171e-05
2 *195:A 0
3 *204:B 0
4 *193:Y 6.1314e-05
5 *32:23 0.000325247
6 *32:12 0.000298344
7 *208:A *208:B 7.85085e-05
8 *208:A *33:16 8.8266e-05
9 *32:12 *33:12 7.23533e-05
10 *32:23 *33:16 0.000246945
11 *30:27 *32:12 3.86529e-05
*RES
1 *193:Y *32:12 6.92 
2 *32:12 *204:B 1.6 
3 *32:12 *32:23 4.62 
4 *32:23 *195:A 1.6 
5 *32:23 *208:A 3.79 
*END

*D_NET *33 0.00235518
*CONN
*I *204:C I *D sky130_fd_sc_hd__and3b_1
*I *208:B I *D sky130_fd_sc_hd__nor2_1
*I *195:B I *D sky130_fd_sc_hd__and2_1
*I *194:X O *D sky130_fd_sc_hd__a32o_1
*CAP
1 *204:C 0
2 *208:B 0.000121953
3 *195:B 0
4 *194:X 0.000311648
5 *33:16 0.000349708
6 *33:12 0.000539403
7 *208:B *209:B 4.99619e-05
8 *33:12 *191:A 9.35189e-05
9 *33:12 *59:34 4.66108e-05
10 *193:B *33:12 0.000296088
11 *208:A *208:B 7.85085e-05
12 *208:A *33:16 8.8266e-05
13 *27:14 *33:12 0
14 *30:27 *33:12 6.02191e-05
15 *32:12 *33:12 7.23533e-05
16 *32:23 *33:16 0.000246945
*RES
1 *194:X *33:12 12.02 
2 *33:12 *33:16 4.95 
3 *33:16 *195:B 1.6 
4 *33:16 *208:B 4.15 
5 *33:12 *204:C 1.6 
*END

*D_NET *34 0.000712788
*CONN
*I *202:A2 I *D sky130_fd_sc_hd__o21a_1
*I *209:A I *D sky130_fd_sc_hd__nor2_1
*I *196:B I *D sky130_fd_sc_hd__nor2_1
*I *195:X O *D sky130_fd_sc_hd__and2_1
*CAP
1 *202:A2 5.39992e-05
2 *209:A 7.83719e-05
3 *196:B 0
4 *195:X 8.61542e-05
5 *34:12 0.000109935
6 *34:8 0.000171717
7 *202:A2 *197:B 2.87867e-05
8 *209:A *197:B 3.72916e-05
9 *34:8 *209:B 0
10 *34:12 *197:B 4.9253e-06
11 *202:A1 *202:A2 0.000133075
12 *202:A1 *34:8 8.53113e-06
*RES
1 *195:X *34:8 4.98 
2 *34:8 *34:12 2.45 
3 *34:12 *196:B 1.6 
4 *34:12 *209:A 3.085 
5 *34:8 *202:A2 5.235 
*END

*D_NET *35 0.000343489
*CONN
*I *197:B I *D sky130_fd_sc_hd__xnor2_1
*I *196:Y O *D sky130_fd_sc_hd__nor2_1
*CAP
1 *197:B 0.000136243
2 *196:Y 0.000136243
3 *202:A1 *197:B 0
4 *202:A2 *197:B 2.87867e-05
5 *209:A *197:B 3.72916e-05
6 *34:12 *197:B 4.9253e-06
*RES
1 *196:Y *197:B 9.375 
*END

*D_NET *36 0.00206628
*CONN
*I *200:B I *D sky130_fd_sc_hd__nor2_1
*I *199:B I *D sky130_fd_sc_hd__and2_1
*I *198:Y O *D sky130_fd_sc_hd__a21boi_1
*CAP
1 *200:B 4.165e-05
2 *199:B 2.27131e-05
3 *198:Y 0.000545149
4 *36:12 0.000609512
5 *189:A *36:12 9.27255e-06
6 *198:A1 *36:12 5.30673e-05
7 *198:A2 *36:12 0.000167543
8 *199:A *199:B 4.77719e-05
9 *199:A *200:B 4.66108e-05
10 *200:A *200:B 3.57349e-05
11 *27:14 *36:12 6.60042e-05
12 *28:14 *36:12 0.000124473
13 *29:8 *36:12 0.000141599
14 *29:21 *36:12 0.000155176
*RES
1 *198:Y *36:12 14.645 
2 *36:12 *199:B 2.05 
3 *36:12 *200:B 2.395 
*END

*D_NET *37 0.000848401
*CONN
*I *201:A I *D sky130_fd_sc_hd__or2_1
*I *199:X O *D sky130_fd_sc_hd__and2_1
*CAP
1 *201:A 0.00018848
2 *199:X 0.00018848
3 *201:A *201:B 8.71841e-05
4 *201:A *205:C1 4.30835e-05
5 *201:A *38:10 0.000117832
6 *28:14 *201:A 1.34361e-05
7 *28:31 *201:A 0.000209905
*RES
1 *199:X *201:A 11.61 
*END

*D_NET *38 0.000675572
*CONN
*I *201:B I *D sky130_fd_sc_hd__or2_1
*I *205:B1 I *D sky130_fd_sc_hd__a211oi_1
*I *200:Y O *D sky130_fd_sc_hd__nor2_1
*CAP
1 *201:B 6.35223e-05
2 *205:B1 0
3 *200:Y 3.54829e-05
4 *38:10 9.90052e-05
5 *201:B *205:C1 0.000156765
6 *201:A *201:B 8.71841e-05
7 *201:A *38:10 0.000117832
8 *28:14 *38:10 0.000112279
9 *28:31 *201:B 3.50152e-06
*RES
1 *200:Y *38:10 6.98 
2 *38:10 *205:B1 1.6 
3 *38:10 *201:B 3.445 
*END

*D_NET *39 0.000272702
*CONN
*I *203:A I *D sky130_fd_sc_hd__xnor2_1
*I *201:X O *D sky130_fd_sc_hd__or2_1
*CAP
1 *203:A 0.000112208
2 *201:X 0.000112208
3 *203:A *203:B 4.82863e-05
*RES
1 *201:X *203:A 9.03 
*END

*D_NET *40 0.000764839
*CONN
*I *203:B I *D sky130_fd_sc_hd__xnor2_1
*I *202:X O *D sky130_fd_sc_hd__o21a_1
*CAP
1 *203:B 0.000358276
2 *202:X 0.000358276
3 *203:A *203:B 4.82863e-05
*RES
1 *202:X *203:B 12.735 
*END

*D_NET *41 0.00127579
*CONN
*I *205:C1 I *D sky130_fd_sc_hd__a211oi_1
*I *204:X O *D sky130_fd_sc_hd__and3b_1
*CAP
1 *205:C1 0.000294315
2 *204:X 0.000294315
3 *201:A *205:C1 4.30835e-05
4 *201:B *205:C1 0.000156765
5 *205:A2 *205:C1 0.000330341
6 *28:31 *205:C1 3.67871e-05
7 *30:27 *205:C1 0.000120186
*RES
1 *204:X *205:C1 13.935 
*END

*D_NET *42 0.00173577
*CONN
*I *207:B I *D sky130_fd_sc_hd__xor2_1
*I *206:B I *D sky130_fd_sc_hd__nor2_1
*I *205:Y O *D sky130_fd_sc_hd__a211oi_1
*CAP
1 *207:B 8.66436e-05
2 *206:B 4.55527e-05
3 *205:Y 0.000650698
4 *42:6 0.000782895
5 *206:B *226:A 3.00381e-05
6 *207:A *207:B 0.00013994
*RES
1 *205:Y *42:6 10.33 
2 *42:6 *206:B 2.41 
3 *42:6 *207:B 7.49 
*END

*D_NET *43 0.00054901
*CONN
*I *209:B I *D sky130_fd_sc_hd__nor2_1
*I *208:Y O *D sky130_fd_sc_hd__nor2_1
*CAP
1 *209:B 0.000249524
2 *208:Y 0.000249524
3 *208:B *209:B 4.99619e-05
4 *34:8 *209:B 0
*RES
1 *208:Y *209:B 10.41 
*END

*D_NET *44 9.41184e-05
*CONN
*I *211:A I *D sky130_fd_sc_hd__clkbuf_1
*I *178:X O *D sky130_fd_sc_hd__and2_1
*CAP
1 *211:A 7.65247e-06
2 *178:X 7.65247e-06
3 *211:A *178:B 4.94457e-05
4 *211:A *54:24 2.93678e-05
*RES
1 *178:X *211:A 3.65 
*END

*D_NET *45 0.000272324
*CONN
*I *210:A I *D sky130_fd_sc_hd__clkbuf_1
*I *177:Y O *D sky130_fd_sc_hd__inv_2
*CAP
1 *210:A 4.2466e-05
2 *177:Y 4.2466e-05
3 *210:A *227:A 8.8266e-05
4 *210:A *54:24 9.91257e-05
*RES
1 *177:Y *210:A 4.685 
*END

*D_NET *46 0.0029129
*CONN
*I *191:B I *D sky130_fd_sc_hd__and4_1
*I *192:B2 I *D sky130_fd_sc_hd__a22oi_1
*I *180:C I *D sky130_fd_sc_hd__and3_1
*I *181:B1 I *D sky130_fd_sc_hd__a22o_1
*I *178:B I *D sky130_fd_sc_hd__and2_1
*I *212:X O *D sky130_fd_sc_hd__buf_1
*CAP
1 *191:B 0.000158599
2 *192:B2 0
3 *180:C 0.000221066
4 *181:B1 0
5 *178:B 0.000237632
6 *212:X 0.00010799
7 *46:37 0.000226166
8 *46:21 0.000279676
9 *46:10 0.000296241
10 *46:8 0.000175556
11 *178:B *181:B2 4.66108e-05
12 *178:B *54:24 0.000135656
13 *180:C *180:A 0.000167575
14 *180:C *54:24 8.12896e-06
15 *191:B *190:A 2.88877e-05
16 *191:B *192:B1 0.000198617
17 *191:B *60:53 4.66108e-05
18 *46:8 *181:B2 2.92496e-05
19 *46:8 *220:A 3.86529e-05
20 *46:21 *181:B2 3.68999e-05
21 *46:21 *54:24 3.04704e-05
22 *46:37 *181:B2 0.000128353
23 *46:37 *191:C 2.09283e-05
24 *46:37 *192:B1 9.09788e-06
25 *182:B1_N *180:C 2.11992e-05
26 *211:A *178:B 4.94457e-05
27 *21:8 *180:C 1.34503e-05
28 *27:14 *191:B 0.000159964
29 *30:18 *191:B 4.01811e-05
*RES
1 *212:X *46:8 5.49 
2 *46:8 *46:10 2 
3 *46:10 *178:B 5.86 
4 *46:10 *46:21 1.14 
5 *46:21 *181:B1 1.6 
6 *46:21 *180:C 4.54 
7 *46:8 *46:37 1.635 
8 *46:37 *192:B2 3.6 
9 *46:37 *191:B 7.395 
*END

*D_NET *47 0.00082519
*CONN
*I *220:A I *D sky130_fd_sc_hd__buf_2
*I *211:X O *D sky130_fd_sc_hd__clkbuf_1
*CAP
1 *220:A 0.000309394
2 *211:X 0.000309394
3 *220:A *54:24 0.000159441
4 *220:A *55:10 0
5 *212:A *220:A 8.30853e-06
6 *46:8 *220:A 3.86529e-05
*RES
1 *211:X *220:A 12.015 
*END

*D_NET *48 0.0003302
*CONN
*I *221:A I *D sky130_fd_sc_hd__buf_2
*I *183:X O *D sky130_fd_sc_hd__xor2_1
*CAP
1 *221:A 0.0001651
2 *183:X 0.0001651
*RES
1 *183:X *221:A 5.735 
*END

*D_NET *49 0.000519482
*CONN
*I *222:A I *D sky130_fd_sc_hd__buf_2
*I *209:Y O *D sky130_fd_sc_hd__nor2_1
*CAP
1 *222:A 0.000259741
2 *209:Y 0.000259741
*RES
1 *209:Y *222:A 7.115 
*END

*D_NET *50 0.00045123
*CONN
*I *223:A I *D sky130_fd_sc_hd__buf_2
*I *197:Y O *D sky130_fd_sc_hd__xnor2_1
*CAP
1 *223:A 0.000225615
2 *197:Y 0.000225615
*RES
1 *197:Y *223:A 6.68 
*END

*D_NET *51 0.000620842
*CONN
*I *224:A I *D sky130_fd_sc_hd__buf_2
*I *203:Y O *D sky130_fd_sc_hd__xnor2_1
*CAP
1 *224:A 0.000310421
2 *203:Y 0.000310421
*RES
1 *203:Y *224:A 11.955 
*END

*D_NET *52 0.000318128
*CONN
*I *225:A I *D sky130_fd_sc_hd__buf_2
*I *207:X O *D sky130_fd_sc_hd__xor2_1
*CAP
1 *225:A 0.000159064
2 *207:X 0.000159064
3 P[6] *225:A 0
*RES
1 *207:X *225:A 9.63 
*END

*D_NET *53 0.000385559
*CONN
*I *226:A I *D sky130_fd_sc_hd__buf_2
*I *206:Y O *D sky130_fd_sc_hd__nor2_1
*CAP
1 *226:A 0.00017776
2 *206:Y 0.00017776
3 *206:B *226:A 3.00381e-05
*RES
1 *206:Y *226:A 6.08 
*END

*D_NET *54 0.00470575
*CONN
*I *186:A1 I *D sky130_fd_sc_hd__a22o_1
*I *185:A I *D sky130_fd_sc_hd__nand4_1
*I *177:A I *D sky130_fd_sc_hd__inv_2
*I *180:A I *D sky130_fd_sc_hd__and3_1
*I *181:A1 I *D sky130_fd_sc_hd__a22o_1
*I *213:X O *D sky130_fd_sc_hd__dlymetal6s2s_1
*CAP
1 *186:A1 2.67084e-05
2 *185:A 0.000288738
3 *177:A 0
4 *180:A 5.81414e-05
5 *181:A1 0
6 *213:X 0.000231827
7 *54:24 0.000676994
8 *54:18 0.000825204
9 *54:12 0.000537315
10 *54:10 0.000300761
11 *180:A *180:B 1.28038e-05
12 *180:A *181:A2 4.77719e-05
13 *185:A *58:16 0.000314745
14 *185:A *60:29 4.00541e-06
15 *185:A *60:36 3.09179e-05
16 *186:A1 *185:D 4.99619e-05
17 *186:A1 *58:16 5.05521e-05
18 *54:10 *60:23 8.87543e-05
19 *54:12 *185:B 0
20 *54:12 *186:B2 5.4003e-05
21 *54:12 *58:10 2.14129e-05
22 *54:12 *60:23 2.97004e-06
23 *54:18 *178:A 0
24 *54:18 *227:A 4.82919e-05
25 *54:18 *58:10 0.000118527
26 *54:18 *58:18 0
27 *54:24 *178:A 0.000168213
28 *54:24 *180:B 3.00454e-05
29 *54:24 *181:B2 4.85359e-05
30 *54:24 *227:A 1.12578e-05
31 *178:B *54:24 0.000135656
32 *180:C *180:A 0.000167575
33 *180:C *54:24 8.12896e-06
34 *210:A *54:24 9.91257e-05
35 *211:A *54:24 2.93678e-05
36 *220:A *54:24 0.000159441
37 *21:8 *180:A 2.75229e-05
38 *46:21 *54:24 3.04704e-05
*RES
1 *213:X *54:10 7.665 
2 *54:10 *54:12 0.87 
3 *54:12 *54:18 5.87 
4 *54:18 *54:24 12.03 
5 *54:24 *181:A1 1.6 
6 *54:24 *180:A 3.445 
7 *54:18 *177:A 1.6 
8 *54:12 *185:A 7.77 
9 *54:10 *186:A1 4.395 
*END

*D_NET *55 0.00421254
*CONN
*I *179:B I *D sky130_fd_sc_hd__nand2_1
*I *194:A2 I *D sky130_fd_sc_hd__a32o_1
*I *192:A2 I *D sky130_fd_sc_hd__a22oi_1
*I *191:C I *D sky130_fd_sc_hd__and4_1
*I *190:A I *D sky130_fd_sc_hd__nand2_1
*I *188:B I *D sky130_fd_sc_hd__and2_1
*I *214:X O *D sky130_fd_sc_hd__buf_1
*CAP
1 *179:B 0.000362476
2 *194:A2 6.68462e-05
3 *192:A2 4.09836e-05
4 *191:C 0.000123297
5 *190:A 0.000183853
6 *188:B 0
7 *214:X 0
8 *55:20 0.000357229
9 *55:14 0.000446472
10 *55:10 0.000475101
11 *55:4 0.000579947
12 *190:A *181:B2 5.18317e-06
13 *190:A *190:B 0.000134878
14 *191:C *191:A 4.4077e-05
15 *191:C *192:B1 0.000197204
16 *191:C *58:46 0
17 *192:A2 *194:A1 0
18 *192:A2 *58:42 7.06056e-05
19 *194:A2 *59:34 4.29198e-05
20 *55:10 *191:A 8.53113e-06
21 *55:10 *58:46 0.000132842
22 *55:10 *59:8 0
23 *55:10 *59:23 0
24 *55:14 *194:A1 0
25 *55:14 *58:33 4.75991e-05
26 *55:14 *58:42 0.000111088
27 *55:20 *181:B2 2.61115e-05
28 *55:20 *58:33 0.00019364
29 *191:B *190:A 2.88877e-05
30 *193:B *192:A2 0.000108022
31 *194:A3 *55:10 8.25609e-05
32 *218:A *179:B 2.75229e-05
33 *220:A *55:10 0
34 *27:14 *190:A 0.000293733
35 *46:37 *191:C 2.09283e-05
*RES
1 *214:X *55:4 1.6 
2 *55:4 *55:10 7.42 
3 *55:10 *55:14 2.19 
4 *55:14 *55:20 4.445 
5 *55:20 *188:B 3.6 
6 *55:20 *190:A 8.34 
7 *55:14 *191:C 8.51 
8 *55:10 *192:A2 2.965 
9 *55:10 *194:A2 2.74 
10 *55:4 *179:B 6.805 
*END

*D_NET *56 0.002003
*CONN
*I *184:B I *D sky130_fd_sc_hd__nand2_1
*I *185:D I *D sky130_fd_sc_hd__nand4_1
*I *186:B1 I *D sky130_fd_sc_hd__a22o_1
*I *215:X O *D sky130_fd_sc_hd__buf_1
*CAP
1 *184:B 0
2 *185:D 7.38453e-05
3 *186:B1 0
4 *215:X 0.000398962
5 *56:18 0.000280857
6 *56:10 0.000605974
7 *185:D *58:16 1.12578e-05
8 *185:D *60:29 0.000124401
9 *56:18 *60:23 0.000319855
10 *186:A1 *185:D 4.99619e-05
11 *23:8 *56:10 7.23533e-05
12 *25:10 *56:18 6.55328e-05
*RES
1 *215:X *56:10 8.535 
2 *56:10 *56:18 6.83 
3 *56:18 *186:B1 1.6 
4 *56:18 *185:D 3.895 
5 *56:10 *184:B 3.6 
*END

*D_NET *57 0.00235289
*CONN
*I *179:A I *D sky130_fd_sc_hd__nand2_1
*I *194:A1 I *D sky130_fd_sc_hd__a32o_1
*I *216:X O *D sky130_fd_sc_hd__clkbuf_1
*CAP
1 *179:A 0.000268748
2 *194:A1 0.000373969
3 *216:X 0.000507571
4 *57:6 0.00115029
5 *179:A *59:8 0
6 *179:A *59:23 0
7 *194:A1 *59:34 3.13358e-05
8 *183:A *179:A 0
9 *192:A2 *194:A1 0
10 *194:B1 *194:A1 2.09749e-05
11 *55:14 *194:A1 0
*RES
1 *216:X *57:6 7.225 
2 *57:6 *194:A1 5.86 
3 *57:6 *179:A 9.275 
*END

*D_NET *58 0.00534175
*CONN
*I *186:B2 I *D sky130_fd_sc_hd__a22o_1
*I *185:B I *D sky130_fd_sc_hd__nand4_1
*I *191:A I *D sky130_fd_sc_hd__and4_1
*I *180:B I *D sky130_fd_sc_hd__and3_1
*I *181:A2 I *D sky130_fd_sc_hd__a22o_1
*I *192:A1 I *D sky130_fd_sc_hd__a22oi_1
*I *178:A I *D sky130_fd_sc_hd__and2_1
*I *217:X O *D sky130_fd_sc_hd__dlymetal6s2s_1
*CAP
1 *186:B2 2.41971e-05
2 *185:B 7.49589e-05
3 *191:A 0.000137499
4 *180:B 0.000146754
5 *181:A2 1.61554e-05
6 *192:A1 0
7 *178:A 0.000218091
8 *217:X 0.000194553
9 *58:46 0.000264886
10 *58:42 0.000261402
11 *58:33 0.000509051
12 *58:18 0.000852356
13 *58:16 0.000303355
14 *58:10 0.000300006
15 *185:B *60:23 0
16 *58:16 *60:29 0.000164874
17 *58:16 *60:36 2.05056e-05
18 *58:33 *192:B1 4.77719e-05
19 *58:33 *59:34 3.46022e-05
20 *180:A *180:B 1.28038e-05
21 *180:A *181:A2 4.77719e-05
22 *182:A2 *180:B 0
23 *182:B1_N *180:B 2.30292e-05
24 *185:A *58:16 0.000314745
25 *185:D *58:16 1.12578e-05
26 *186:A1 *58:16 5.05521e-05
27 *191:C *191:A 4.4077e-05
28 *191:C *58:46 0
29 *192:A2 *58:42 7.06056e-05
30 *193:B *191:A 3.05957e-05
31 *193:B *58:33 6.69608e-06
32 *193:B *58:42 3.06107e-05
33 *194:A3 *191:A 7.21296e-06
34 *21:8 *180:B 8.32411e-05
35 *24:12 *185:B 9.50342e-06
36 *25:10 *185:B 4.18603e-06
37 *27:14 *58:33 4.44209e-05
38 *33:12 *191:A 9.35189e-05
39 *54:12 *185:B 0
40 *54:12 *186:B2 5.4003e-05
41 *54:12 *58:10 2.14129e-05
42 *54:18 *178:A 0
43 *54:18 *58:10 0.000118527
44 *54:18 *58:18 0
45 *54:24 *178:A 0.000168213
46 *54:24 *180:B 3.00454e-05
47 *55:10 *191:A 8.53113e-06
48 *55:10 *58:46 0.000132842
49 *55:14 *58:33 4.75991e-05
50 *55:14 *58:42 0.000111088
51 *55:20 *58:33 0.00019364
*RES
1 *217:X *58:10 7.065 
2 *58:10 *58:16 7.21 
3 *58:16 *58:18 2.145 
4 *58:18 *178:A 7.755 
5 *58:18 *58:33 10.04 
6 *58:33 *192:A1 1.6 
7 *58:33 *58:42 3.14 
8 *58:42 *58:46 3.635 
9 *58:46 *181:A2 2.05 
10 *58:46 *180:B 3.955 
11 *58:42 *191:A 6.3 
12 *58:16 *185:B 4.725 
13 *58:10 *186:B2 4.215 
*END

*D_NET *59 0.00269408
*CONN
*I *188:A I *D sky130_fd_sc_hd__and2_1
*I *181:B2 I *D sky130_fd_sc_hd__a22o_1
*I *194:B2 I *D sky130_fd_sc_hd__a32o_1
*I *182:A1 I *D sky130_fd_sc_hd__a21bo_1
*I *218:X O *D sky130_fd_sc_hd__buf_1
*CAP
1 *188:A 0
2 *181:B2 0.000109557
3 *194:B2 0
4 *182:A1 0.00015127
5 *218:X 7.49995e-05
6 *59:34 0.000479198
7 *59:23 0.000538675
8 *59:8 0.000395302
9 *59:34 *192:B1 2.49909e-05
10 *178:B *181:B2 4.66108e-05
11 *179:A *59:8 0
12 *179:A *59:23 0
13 *182:A2 *182:A1 9.21168e-05
14 *182:B1_N *182:A1 0.0001249
15 *190:A *181:B2 5.18317e-06
16 *193:B *59:34 0.000158532
17 *194:A1 *59:34 3.13358e-05
18 *194:A2 *59:34 4.29198e-05
19 *194:A3 *59:23 0
20 *194:B1 *59:23 4.94326e-05
21 *194:B1 *59:34 7.03925e-06
22 *27:14 *59:34 1.16578e-05
23 *33:12 *59:34 4.66108e-05
24 *46:8 *181:B2 2.92496e-05
25 *46:21 *181:B2 3.68999e-05
26 *46:37 *181:B2 0.000128353
27 *54:24 *181:B2 4.85359e-05
28 *55:10 *59:8 0
29 *55:10 *59:23 0
30 *55:20 *181:B2 2.61115e-05
31 *58:33 *59:34 3.46022e-05
*RES
1 *218:X *59:8 4.725 
2 *59:8 *182:A1 6.48 
3 *59:8 *59:23 4.655 
4 *59:23 *194:B2 1.6 
5 *59:23 *59:34 6.255 
6 *59:34 *181:B2 8.285 
7 *59:34 *188:A 1.6 
*END

*D_NET *60 0.00401713
*CONN
*I *186:A2 I *D sky130_fd_sc_hd__a22o_1
*I *191:D I *D sky130_fd_sc_hd__and4_1
*I *192:B1 I *D sky130_fd_sc_hd__a22oi_1
*I *190:B I *D sky130_fd_sc_hd__nand2_1
*I *185:C I *D sky130_fd_sc_hd__nand4_1
*I *184:A I *D sky130_fd_sc_hd__nand2_1
*I *219:X O *D sky130_fd_sc_hd__dlymetal6s2s_1
*CAP
1 *186:A2 0
2 *191:D 0
3 *192:B1 7.81502e-05
4 *190:B 0.000174405
5 *185:C 0
6 *184:A 0
7 *219:X 0.000167177
8 *60:53 0.000165298
9 *60:36 0.000679887
10 *60:29 0.000474027
11 *60:23 0.000305316
12 *60:6 0.0004168
13 *185:A *60:29 4.00541e-06
14 *185:A *60:36 3.09179e-05
15 *185:B *60:23 0
16 *185:D *60:29 0.000124401
17 *190:A *190:B 0.000134878
18 *191:B *192:B1 0.000198617
19 *191:B *60:53 4.66108e-05
20 *191:C *192:B1 0.000197204
21 *27:14 *190:B 4.41506e-05
22 *28:14 *190:B 1.41165e-05
23 *30:18 *60:53 8.23457e-05
24 *46:37 *192:B1 9.09788e-06
25 *54:10 *60:23 8.87543e-05
26 *54:12 *60:23 2.97004e-06
27 *56:18 *60:23 0.000319855
28 *58:16 *60:29 0.000164874
29 *58:16 *60:36 2.05056e-05
30 *58:33 *192:B1 4.77719e-05
31 *59:34 *192:B1 2.49909e-05
*RES
1 *219:X *60:6 4.12 
2 *60:6 *184:A 1.6 
3 *60:6 *60:23 9.19 
4 *60:23 *60:29 2.205 
5 *60:29 *185:C 1.6 
6 *60:29 *60:36 6.315 
7 *60:36 *190:B 8.735 
8 *60:36 *60:53 1.485 
9 *60:53 *192:B1 8.45 
10 *60:53 *191:D 1.6 