*SPEF "ieee 1481-1999"
*DESIGN "mult4_SarsaNada_e6_SARSA_RUIDO_e9_SARSA_RUIDO_e9_SARSA_RUIDO_e9"
*DATE "14:36:52 Tuesday September 16, 2025"
*VENDOR "The OpenROAD Project"
*PROGRAM "OpenROAD"
*VERSION "edf00dff99f6c40d67a30c0e22a8191c5d2ed9d6"
*DESIGN_FLOW "NAME_SCOPE LOCAL" "PIN_CAP NONE"
*DIVIDER /
*DELIMITER :
*BUS_DELIMITER []
*T_UNIT 1 NS
*C_UNIT 1 PF
*R_UNIT 1 OHM
*L_UNIT 1 HENRY

*NAME_MAP
*1 A[0]
*2 A[1]
*3 A[2]
*4 A[3]
*5 B[0]
*6 B[1]
*7 B[2]
*8 B[3]
*9 P[0]
*10 P[1]
*11 P[2]
*12 P[3]
*13 P[4]
*14 P[5]
*15 P[6]
*16 P[7]
*19 _00_
*20 _01_
*21 _02_
*22 _03_
*23 _04_
*24 _05_
*25 _06_
*26 _07_
*27 _08_
*28 _09_
*29 _10_
*30 _11_
*31 _12_
*32 _13_
*33 _14_
*34 _15_
*35 _16_
*36 _17_
*37 _18_
*38 _19_
*39 _20_
*40 _21_
*41 _22_
*42 _23_
*43 _24_
*44 _25_
*45 _26_
*46 _27_
*47 _28_
*48 _29_
*49 _30_
*50 _31_
*51 _32_
*52 _33_
*53 _34_
*54 _35_
*55 _36_
*56 mul_ll\.pp1
*57 net1
*58 net10
*59 net11
*60 net12
*61 net13
*62 net14
*63 net15
*64 net16
*65 net2
*66 net3
*67 net4
*68 net5
*69 net6
*70 net7
*71 net8
*72 net9
*73 FILLER_0_11
*74 FILLER_0_21
*75 FILLER_0_3
*76 FILLER_0_44
*77 FILLER_0_57
*78 FILLER_0_69
*79 FILLER_1_15
*80 FILLER_1_3
*81 FILLER_1_50
*82 FILLER_1_66
*83 FILLER_1_78
*84 FILLER_2_13
*85 FILLER_2_29
*86 FILLER_2_43
*87 FILLER_2_55
*88 FILLER_2_63
*89 FILLER_2_69
*90 FILLER_3_11
*91 FILLER_3_3
*92 FILLER_3_34
*93 FILLER_3_46
*94 FILLER_3_54
*95 FILLER_3_60
*96 FILLER_3_65
*97 FILLER_3_77
*98 FILLER_4_10
*99 FILLER_4_29
*100 FILLER_4_41
*101 FILLER_4_49
*102 FILLER_4_6
*103 FILLER_4_72
*104 FILLER_4_80
*105 FILLER_5_13
*106 FILLER_5_27
*107 FILLER_5_39
*108 FILLER_5_51
*109 FILLER_5_55
*110 FILLER_5_57
*111 FILLER_5_65
*112 FILLER_5_70
*113 FILLER_5_76
*114 FILLER_6_10
*115 FILLER_6_15
*116 FILLER_6_21
*117 FILLER_6_27
*118 FILLER_6_32
*119 FILLER_6_44
*120 FILLER_6_50
*121 FILLER_6_58
*122 FILLER_6_68
*123 FILLER_6_80
*124 FILLER_7_22
*125 FILLER_7_26
*126 FILLER_7_3
*127 FILLER_7_41
*128 FILLER_7_54
*129 FILLER_7_57
*130 FILLER_7_63
*131 FILLER_7_69
*132 FILLER_8_15
*133 FILLER_8_27
*134 FILLER_8_3
*135 FILLER_8_36
*136 FILLER_8_44
*137 FILLER_8_53
*138 FILLER_8_65
*139 FILLER_8_7
*140 FILLER_8_77
*141 FILLER_9_19
*142 FILLER_9_27
*143 FILLER_9_29
*144 FILLER_9_41
*145 FILLER_9_49
*146 FILLER_9_57
*147 FILLER_9_69
*148 FILLER_9_7
*149 PHY_EDGE_ROW_0_Left_10
*150 PHY_EDGE_ROW_0_Right_0
*151 PHY_EDGE_ROW_1_Left_11
*152 PHY_EDGE_ROW_1_Right_1
*153 PHY_EDGE_ROW_2_Left_12
*154 PHY_EDGE_ROW_2_Right_2
*155 PHY_EDGE_ROW_3_Left_13
*156 PHY_EDGE_ROW_3_Right_3
*157 PHY_EDGE_ROW_4_Left_14
*158 PHY_EDGE_ROW_4_Right_4
*159 PHY_EDGE_ROW_5_Left_15
*160 PHY_EDGE_ROW_5_Right_5
*161 PHY_EDGE_ROW_6_Left_16
*162 PHY_EDGE_ROW_6_Right_6
*163 PHY_EDGE_ROW_7_Left_17
*164 PHY_EDGE_ROW_7_Right_7
*165 PHY_EDGE_ROW_8_Left_18
*166 PHY_EDGE_ROW_8_Right_8
*167 PHY_EDGE_ROW_9_Left_19
*168 PHY_EDGE_ROW_9_Right_9
*169 TAP_TAPCELL_ROW_0_20
*170 TAP_TAPCELL_ROW_0_21
*171 TAP_TAPCELL_ROW_1_22
*172 TAP_TAPCELL_ROW_2_23
*173 TAP_TAPCELL_ROW_3_24
*174 TAP_TAPCELL_ROW_4_25
*175 TAP_TAPCELL_ROW_5_26
*176 TAP_TAPCELL_ROW_6_27
*177 TAP_TAPCELL_ROW_7_28
*178 TAP_TAPCELL_ROW_8_29
*179 TAP_TAPCELL_ROW_9_30
*180 TAP_TAPCELL_ROW_9_31
*181 _37_
*182 _38_
*183 _39_
*184 _40_
*185 _41_
*186 _42_
*187 _43_
*188 _44_
*189 _45_
*190 _46_
*191 _47_
*192 _48_
*193 _49_
*194 _50_
*195 _51_
*196 _52_
*197 _53_
*198 _54_
*199 _55_
*200 _56_
*201 _57_
*202 _58_
*203 _59_
*204 _60_
*205 _61_
*206 _62_
*207 _63_
*208 _64_
*209 _65_
*210 _66_
*211 _67_
*212 _68_
*213 _69_
*214 _70_
*215 _71_
*216 _72_
*217 _73_
*218 _74_
*219 _75_
*220 _76_
*221 _77_
*222 _78_
*223 _79_
*224 _80_
*225 _81_
*226 _82_
*227 input1
*228 input2
*229 input3
*230 input4
*231 input5
*232 input6
*233 input7
*234 input8
*235 output10
*236 output11
*237 output12
*238 output13
*239 output14
*240 output15
*241 output16
*242 output9

*PORTS
A[0] I
A[1] I
A[2] I
A[3] I
B[0] I
B[1] I
B[2] I
B[3] I
P[0] O
P[1] O
P[2] O
P[3] O
P[4] O
P[5] O
P[6] O
P[7] O

*D_NET *1 0.00219249
*CONN
*P A[0] I
*I *227:A I *D sky130_fd_sc_hd__buf_1
*CAP
1 A[0] 0.000712862
2 *227:A 0
3 *1:11 0.000712862
4 *1:11 *182:C 0.000183733
5 *1:11 *182:D 4.95081e-05
6 *1:11 *184:A 1.40958e-05
7 *1:11 *232:A 9.84851e-05
8 *1:11 *2:13 0.000123934
9 *1:11 *5:11 0
10 *1:11 *57:8 6.9805e-05
11 *1:11 *65:8 0.000227208
*RES
1 A[0] *1:11 31.6129 
2 *1:11 *227:A 23 
*END

*D_NET *2 0.00142824
*CONN
*P A[1] I
*I *228:A I *D sky130_fd_sc_hd__dlymetal6s2s_1
*CAP
1 A[1] 0.000556283
2 *228:A 0
3 *2:13 0.000556283
4 *2:13 *182:C 0
5 *2:13 *184:A 5.67058e-05
6 *2:13 *232:A 0
7 *2:13 *19:6 4.5051e-05
8 *2:13 *57:14 2.76611e-06
9 *2:13 *65:16 8.72173e-05
10 *1:11 *2:13 0.000123934
*RES
1 A[1] *2:13 27.3457 
2 *2:13 *228:A 23 
*END

*D_NET *3 0.000693343
*CONN
*P A[2] I
*I *229:A I *D sky130_fd_sc_hd__dlymetal6s2s_1
*CAP
1 A[2] 0.000336518
2 *229:A 0
3 *3:17 0.000336518
4 *3:17 *7:17 2.0307e-05
*RES
1 A[2] *3:17 27.5105 
2 *3:17 *229:A 23 
*END

*D_NET *4 0.000808082
*CONN
*P A[3] I
*I *230:A I *D sky130_fd_sc_hd__buf_1
*CAP
1 A[3] 0.000358767
2 *230:A 0.000358767
3 *230:A P[7] 5.11907e-05
4 *230:A *202:B1 0
5 *230:A *8:17 2.79122e-05
6 *230:A *64:10 1.14452e-05
*RES
1 A[3] *230:A 48.1267 
*END

*D_NET *5 0.00188591
*CONN
*P B[0] I
*I *231:A I *D sky130_fd_sc_hd__buf_1
*CAP
1 B[0] 0.000780084
2 *231:A 0
3 *5:11 0.000780084
4 *5:11 P[0] 1.24376e-05
5 *5:11 P[1] 9.84851e-05
6 *5:11 *184:A 3.71369e-05
7 *5:11 *184:B 5.79559e-05
8 *5:11 *235:A 0.000102389
9 *5:11 *68:14 1.73399e-05
10 *1:11 *5:11 0
*RES
1 B[0] *5:11 30.66 
2 *5:11 *231:A 23 
*END

*D_NET *6 0.0010921
*CONN
*P B[1] I
*I *232:A I *D sky130_fd_sc_hd__clkbuf_2
*CAP
1 B[1] 0.000447564
2 *232:A 0.000447564
3 *232:A *182:C 0
4 *232:A *57:8 9.84851e-05
5 *1:11 *232:A 9.84851e-05
6 *2:13 *232:A 0
*RES
1 B[1] *232:A 47.7979 
*END

*D_NET *7 0.000739088
*CONN
*P B[2] I
*I *233:A I *D sky130_fd_sc_hd__buf_1
*CAP
1 B[2] 0.000344946
2 *233:A 0
3 *7:17 0.000344946
4 *7:17 *8:17 2.88889e-05
5 *3:17 *7:17 2.0307e-05
*RES
1 B[2] *7:17 28.2148 
2 *7:17 *233:A 23 
*END

*D_NET *8 0.00068614
*CONN
*P B[3] I
*I *234:A I *D sky130_fd_sc_hd__dlymetal6s2s_1
*CAP
1 B[3] 0.000314669
2 *234:A 0
3 *8:17 0.000314669
4 *230:A *8:17 2.79122e-05
5 *7:17 *8:17 2.88889e-05
*RES
1 B[3] *8:17 27.5105 
2 *8:17 *234:A 23 
*END

*D_NET *9 0.00101406
*CONN
*P P[0] O
*I *242:X O *D sky130_fd_sc_hd__buf_2
*CAP
1 P[0] 0.000500809
2 *242:X 0.000500809
3 P[0] P[1] 0
4 *5:11 P[0] 1.24376e-05
*RES
1 *242:X P[0] 47.57 
*END

*D_NET *10 0.00104314
*CONN
*P P[1] O
*I *235:X O *D sky130_fd_sc_hd__buf_2
*CAP
1 P[1] 0.000472329
2 *235:X 0.000472329
3 P[0] P[1] 0
4 *5:11 P[1] 9.84851e-05
*RES
1 *235:X P[1] 47.86 
*END

*D_NET *11 0.000536269
*CONN
*P P[2] O
*I *236:X O *D sky130_fd_sc_hd__buf_2
*CAP
1 P[2] 0.000268134
2 *236:X 0.000268134
3 P[2] P[3] 0
*RES
1 *236:X P[2] 47.5169 
*END

*D_NET *12 0.000599998
*CONN
*P P[3] O
*I *237:X O *D sky130_fd_sc_hd__buf_2
*CAP
1 P[3] 0.000299999
2 *237:X 0.000299999
3 P[3] P[4] 0
4 P[3] *35:8 0
5 P[2] P[3] 0
*RES
1 *237:X P[3] 47.8691 
*END

*D_NET *13 0.000502077
*CONN
*P P[4] O
*I *238:X O *D sky130_fd_sc_hd__buf_2
*CAP
1 P[4] 0.000251039
2 *238:X 0.000251039
3 P[3] P[4] 0
*RES
1 *238:X P[4] 47.1648 
*END

*D_NET *14 0.00100219
*CONN
*P P[5] O
*I *239:X O *D sky130_fd_sc_hd__buf_2
*CAP
1 P[5] 0.000501094
2 *239:X 0.000501094
*RES
1 *239:X P[5] 48.9786 
*END

*D_NET *15 0.000703084
*CONN
*P P[6] O
*I *240:X O *D sky130_fd_sc_hd__buf_2
*CAP
1 P[6] 0.000304454
2 *240:X 0.000304454
3 P[6] P[7] 5.08354e-05
4 P[6] *63:10 4.334e-05
*RES
1 *240:X P[6] 48.5734 
*END

*D_NET *16 0.000814994
*CONN
*P P[7] O
*I *241:X O *D sky130_fd_sc_hd__buf_2
*CAP
1 P[7] 9.01465e-05
2 *241:X 0.000266337
3 *16:12 0.000356484
4 *16:12 *64:10 0
5 P[6] P[7] 5.08354e-05
6 *230:A P[7] 5.11907e-05
*RES
1 *241:X *16:12 49.7804 
2 *16:12 P[7] 0.500267 
*END

*D_NET *19 0.00343003
*CONN
*I *197:B1 I *D sky130_fd_sc_hd__o21ai_1
*I *187:C_N I *D sky130_fd_sc_hd__or3b_1
*I *188:A3 I *D sky130_fd_sc_hd__a32o_1
*I *184:A I *D sky130_fd_sc_hd__and2_1
*I *182:Y O *D sky130_fd_sc_hd__nand4_1
*CAP
1 *197:B1 0.000128595
2 *187:C_N 2.16901e-05
3 *188:A3 0
4 *184:A 0.000337215
5 *182:Y 8.05127e-05
6 *19:42 0.0003435
7 *19:29 0.000398597
8 *19:6 0.000623109
9 *184:A *65:8 2.31738e-05
10 *187:C_N *21:14 3.23857e-06
11 *197:B1 *197:A1 0.000187968
12 *197:B1 *197:A2 9.44323e-05
13 *197:B1 *21:14 6.65573e-05
14 *197:B1 *22:6 0.000106277
15 *197:B1 *32:10 3.22051e-05
16 *19:29 *183:B1 9.41704e-05
17 *19:29 *65:16 4.08537e-05
18 *19:29 *68:41 0.000170335
19 *19:42 *186:A 5.50049e-05
20 *19:42 *21:14 0.000119281
21 *19:42 *22:6 0.000148656
22 *19:42 *57:25 7.80354e-05
23 *19:42 *57:40 1.22803e-05
24 *19:42 *65:16 1.37349e-05
25 *19:42 *65:31 5.561e-05
26 *19:42 *66:10 2.76611e-06
27 *19:42 *68:41 3.92407e-05
28 *1:11 *184:A 1.40958e-05
29 *2:13 *184:A 5.67058e-05
30 *2:13 *19:6 4.5051e-05
31 *5:11 *184:A 3.71369e-05
*RES
1 *182:Y *19:6 24.0979 
2 *19:6 *184:A 29.38 
3 *19:6 *19:29 48.5007 
4 *19:29 *188:A3 38 
5 *19:29 *19:42 20.9657 
6 *19:42 *187:C_N 23.4971 
7 *19:42 *197:B1 27.9093 
*END

*D_NET *20 0.000916597
*CONN
*I *184:B I *D sky130_fd_sc_hd__and2_1
*I *183:X O *D sky130_fd_sc_hd__a22o_1
*CAP
1 *184:B 2.42721e-05
2 *183:X 0.000324971
3 *20:10 0.000349243
4 *20:10 *181:A_N 3.07986e-05
5 *20:10 *181:B 0.000100693
6 *20:10 *68:20 2.18409e-05
7 *20:10 *68:33 6.82228e-06
8 *5:11 *184:B 5.79559e-05
*RES
1 *183:X *20:10 42.785 
2 *20:10 *184:B 38.6214 
*END

*D_NET *21 0.00414176
*CONN
*I *204:A I *D sky130_fd_sc_hd__nor2_1
*I *205:A1 I *D sky130_fd_sc_hd__o21ai_1
*I *197:A1 I *D sky130_fd_sc_hd__o21ai_1
*I *187:A I *D sky130_fd_sc_hd__or3b_1
*I *185:Y O *D sky130_fd_sc_hd__nand2_1
*CAP
1 *204:A 0.000318424
2 *205:A1 0.000121859
3 *197:A1 8.22271e-05
4 *187:A 0
5 *185:Y 5.17791e-05
6 *21:30 0.000617538
7 *21:14 0.000433894
8 *21:8 0.000580702
9 *204:A *214:A2 4.96717e-05
10 *204:A *214:B1 5.83407e-05
11 *204:A *70:21 9.88574e-06
12 *205:A1 *201:A 0
13 *205:A1 *201:B 0
14 *205:A1 *214:A2 6.17437e-06
15 *205:A1 *214:A3 6.349e-05
16 *21:8 *185:A 8.62783e-05
17 *21:8 *202:A1 3.70187e-05
18 *21:8 *69:50 0.000110913
19 *21:14 *186:A 5.50049e-05
20 *21:14 *186:B 0.00014196
21 *21:14 *65:31 0.000221997
22 *21:14 *66:10 6.53382e-05
23 *21:30 *201:B 1.01436e-05
24 *21:30 *202:A1 0.000268491
25 *21:30 *202:B1 0
26 *21:30 *66:46 0.000138708
27 *21:30 *69:50 0.000222123
28 *21:30 *70:25 1.27508e-05
29 *187:C_N *21:14 3.23857e-06
30 *197:B1 *197:A1 0.000187968
31 *197:B1 *21:14 6.65573e-05
32 *19:42 *21:14 0.000119281
*RES
1 *185:Y *21:8 39.5536 
2 *21:8 *21:14 23.265 
3 *21:14 *187:A 23 
4 *21:14 *197:A1 25.0507 
5 *21:8 *21:30 20.4271 
6 *21:30 *205:A1 25.0921 
7 *21:30 *204:A 27.8057 
*END

*D_NET *22 0.00126265
*CONN
*I *197:A2 I *D sky130_fd_sc_hd__o21ai_1
*I *187:B I *D sky130_fd_sc_hd__or3b_1
*I *186:Y O *D sky130_fd_sc_hd__nand2_1
*CAP
1 *197:A2 0.000137486
2 *187:B 0
3 *186:Y 0.000319156
4 *22:6 0.000456642
5 *197:B1 *197:A2 9.44323e-05
6 *197:B1 *22:6 0.000106277
7 *19:42 *22:6 0.000148656
*RES
1 *186:Y *22:6 27.9093 
2 *22:6 *187:B 23 
3 *22:6 *197:A2 25.0507 
*END

*D_NET *23 0.00278801
*CONN
*I *190:A1 I *D sky130_fd_sc_hd__a21oi_1
*I *191:A I *D sky130_fd_sc_hd__and3_1
*I *187:X O *D sky130_fd_sc_hd__or3b_1
*CAP
1 *190:A1 0.000198921
2 *191:A 0
3 *187:X 8.15596e-05
4 *23:12 0.000358034
5 *23:8 0.000240672
6 *190:A1 *190:B1 0.000177868
7 *190:A1 *25:14 9.29023e-05
8 *23:8 *57:25 0
9 *23:8 *66:31 0.000110922
10 *23:12 *226:A 1.76557e-05
11 *23:12 *24:6 0.000795516
12 *23:12 *25:14 0.00040933
13 *23:12 *66:31 0.000233367
14 *23:12 *68:18 4.65096e-05
15 *23:12 *68:20 2.4754e-05
*RES
1 *187:X *23:8 39.5536 
2 *23:8 *23:12 24.1971 
3 *23:12 *191:A 23 
4 *23:12 *190:A1 26.5007 
*END

*D_NET *24 0.00380111
*CONN
*I *190:A2 I *D sky130_fd_sc_hd__a21oi_1
*I *191:B I *D sky130_fd_sc_hd__and3_1
*I *188:X O *D sky130_fd_sc_hd__a32o_1
*CAP
1 *190:A2 8.83244e-05
2 *191:B 0
3 *188:X 0.000817591
4 *24:14 0.000351623
5 *24:6 0.00108089
6 *190:A2 *190:B1 0.000122863
7 *190:A2 *25:14 3.22076e-05
8 *190:A2 *27:10 3.22879e-05
9 *24:6 *68:20 1.16778e-05
10 *24:6 *68:33 0.000235687
11 *24:6 *68:41 0.000186059
12 *24:14 *25:14 4.63849e-05
13 *24:14 *27:10 0
14 *24:14 *68:14 0
15 *23:12 *24:6 0.000795516
*RES
1 *188:X *24:6 36.485 
2 *24:6 *24:14 33.48 
3 *24:14 *191:B 23 
4 *24:14 *190:A2 25.7757 
*END

*D_NET *25 0.00182691
*CONN
*I *190:B1 I *D sky130_fd_sc_hd__a21oi_1
*I *191:C I *D sky130_fd_sc_hd__and3_1
*I *189:X O *D sky130_fd_sc_hd__and2_1
*CAP
1 *190:B1 9.45974e-05
2 *191:C 0
3 *189:X 0.000283312
4 *25:14 0.000377909
5 *190:B1 *27:10 1.40958e-05
6 *25:14 *226:A 0.000120659
7 *25:14 *72:10 5.47808e-05
8 *190:A1 *190:B1 0.000177868
9 *190:A1 *25:14 9.29023e-05
10 *190:A2 *190:B1 0.000122863
11 *190:A2 *25:14 3.22076e-05
12 *23:12 *25:14 0.00040933
13 *24:14 *25:14 4.63849e-05
*RES
1 *189:X *25:14 31.41 
2 *25:14 *191:C 23 
3 *25:14 *190:B1 25.9207 
*END

*D_NET *26 0.000566801
*CONN
*I *192:A I *D sky130_fd_sc_hd__nor2_1
*I *190:Y O *D sky130_fd_sc_hd__a21oi_1
*CAP
1 *192:A 2.79004e-05
2 *190:Y 0.000166229
3 *26:8 0.00019413
4 *192:A *192:B 5.50106e-05
5 *26:8 *27:10 0.000105165
6 *26:8 *27:23 1.83667e-05
*RES
1 *190:Y *26:8 41.3143 
2 *26:8 *192:A 38.6214 
*END

*D_NET *27 0.00225261
*CONN
*I *200:A I *D sky130_fd_sc_hd__and3_1
*I *223:B1 I *D sky130_fd_sc_hd__a21oi_1
*I *192:B I *D sky130_fd_sc_hd__nor2_1
*I *191:X O *D sky130_fd_sc_hd__and3_1
*CAP
1 *200:A 0.000174702
2 *223:B1 5.80571e-05
3 *192:B 0.000170602
4 *191:X 0.000202288
5 *27:23 0.000421963
6 *27:10 0.000562094
7 *192:B *59:8 3.22879e-05
8 *200:A *199:A1 2.02517e-05
9 *200:A *199:A2 7.53384e-06
10 *200:A *200:C 0.000140259
11 *200:A *31:8 0
12 *200:A *32:33 5.29672e-05
13 *200:A *34:10 0.000140949
14 *223:B1 *55:10 3.22879e-05
15 *27:23 *34:10 1.14452e-05
16 *27:23 *55:10 0
17 *190:A2 *27:10 3.22879e-05
18 *190:B1 *27:10 1.40958e-05
19 *192:A *192:B 5.50106e-05
20 *24:14 *27:10 0
21 *26:8 *27:10 0.000105165
22 *26:8 *27:23 1.83667e-05
*RES
1 *191:X *27:10 42.06 
2 *27:10 *192:B 41.0243 
3 *27:10 *27:23 3.66643 
4 *27:23 *223:B1 39.2429 
5 *27:23 *200:A 42.4536 
*END

*D_NET *28 0.000794767
*CONN
*I *215:B1 I *D sky130_fd_sc_hd__a21oi_1
*I *193:Y O *D sky130_fd_sc_hd__nand2_1
*CAP
1 *215:B1 4.22964e-05
2 *193:Y 0.000207547
3 *28:10 0.000249843
4 *215:B1 *219:A2 2.45549e-06
5 *215:B1 *219:B2 9.77405e-05
6 *215:B1 *43:8 1.31081e-05
7 *28:10 *193:A 1.73399e-05
8 *28:10 *48:29 0.000120405
9 *28:10 *49:8 4.40319e-05
*RES
1 *193:Y *28:10 41.7079 
2 *28:10 *215:B1 39.0979 
*END

*D_NET *29 0.00661668
*CONN
*I *208:A I *D sky130_fd_sc_hd__nand2_1
*I *215:A1 I *D sky130_fd_sc_hd__a21oi_1
*I *207:B1 I *D sky130_fd_sc_hd__a21oi_1
*I *199:A1 I *D sky130_fd_sc_hd__o21bai_1
*I *198:A I *D sky130_fd_sc_hd__or3b_1
*I *194:X O *D sky130_fd_sc_hd__and4_1
*CAP
1 *208:A 4.06213e-05
2 *215:A1 0
3 *207:B1 0
4 *199:A1 0.000281068
5 *198:A 0.000166374
6 *194:X 0.000643839
7 *29:55 5.79358e-05
8 *29:47 0.000751795
9 *29:25 0.000370813
10 *29:14 0.000326468
11 *29:10 0.000881593
12 *29:8 0.000801846
13 *198:A *32:25 0.000297137
14 *198:A *42:10 3.22879e-05
15 *199:A1 *199:A2 2.35625e-05
16 *199:A1 *32:25 0.000294396
17 *208:A *41:36 1.42253e-05
18 *29:8 *30:10 0.000625797
19 *29:8 *66:16 0.000228001
20 *29:8 *66:31 2.75811e-05
21 *29:10 *32:10 8.08511e-05
22 *29:10 *66:31 0
23 *29:25 *32:25 0.00014196
24 *29:47 *213:A_N 0
25 *29:47 *213:B 0.000177541
26 *29:47 *217:B 5.50049e-05
27 *29:47 *32:10 1.19796e-05
28 *29:47 *41:10 0
29 *29:47 *41:25 0
30 *29:47 *41:36 3.11552e-05
31 *29:47 *42:10 0
32 *29:47 *43:8 4.2573e-05
33 *29:55 *219:B2 9.03964e-06
34 *29:55 *41:25 3.04661e-05
35 *29:55 *41:36 1.83327e-05
36 *29:55 *43:8 9.94453e-05
37 *29:55 *49:8 3.27399e-05
38 *200:A *199:A1 2.02517e-05
*RES
1 *194:X *29:8 48.15 
2 *29:8 *29:10 3.31429 
3 *29:10 *29:14 16.0979 
4 *29:14 *198:A 27.8057 
5 *29:14 *29:25 2.05071 
6 *29:25 *199:A1 28.3029 
7 *29:25 *207:B1 23 
8 *29:10 *29:47 28.0293 
9 *29:47 *29:55 31.9471 
10 *29:55 *215:A1 23 
11 *29:47 *208:A 23.8493 
*END

*D_NET *30 0.00214996
*CONN
*I *207:A1 I *D sky130_fd_sc_hd__a21oi_1
*I *196:A I *D sky130_fd_sc_hd__inv_2
*I *195:X O *D sky130_fd_sc_hd__a22o_1
*CAP
1 *207:A1 7.58091e-05
2 *196:A 0.000164218
3 *195:X 0.000346888
4 *30:10 0.000586916
5 *207:A1 *31:8 0
6 *207:A1 *32:10 0.000132665
7 *30:10 *32:10 6.48142e-05
8 *30:10 *66:31 0.00015285
9 *29:8 *30:10 0.000625797
*RES
1 *195:X *30:10 47.57 
2 *30:10 *196:A 41.0036 
3 *30:10 *207:A1 39.9057 
*END

*D_NET *31 0.00084466
*CONN
*I *199:A2 I *D sky130_fd_sc_hd__o21bai_1
*I *198:B I *D sky130_fd_sc_hd__or3b_1
*I *196:Y O *D sky130_fd_sc_hd__inv_2
*CAP
1 *199:A2 7.92464e-05
2 *198:B 4.01155e-05
3 *196:Y 0.000147654
4 *31:12 0.000151901
5 *31:8 0.000180193
6 *199:A2 *32:25 2.4754e-05
7 *199:A2 *32:33 0.00014196
8 *31:8 *32:10 0
9 *31:8 *32:33 1.83564e-05
10 *31:8 *55:10 0
11 *31:12 *32:25 2.93845e-05
12 *199:A1 *199:A2 2.35625e-05
13 *200:A *199:A2 7.53384e-06
14 *200:A *31:8 0
15 *207:A1 *31:8 0
*RES
1 *196:Y *31:8 40.2579 
2 *31:8 *31:12 15.6214 
3 *31:12 *198:B 23.8493 
4 *31:12 *199:A2 25.5479 
*END

*D_NET *32 0.00307737
*CONN
*I *198:C_N I *D sky130_fd_sc_hd__or3b_1
*I *199:B1_N I *D sky130_fd_sc_hd__o21bai_1
*I *207:A2 I *D sky130_fd_sc_hd__a21oi_1
*I *197:Y O *D sky130_fd_sc_hd__o21ai_1
*CAP
1 *198:C_N 0
2 *199:B1_N 0
3 *207:A2 0
4 *197:Y 0.000552116
5 *32:33 0.000209492
6 *32:25 0.000324852
7 *32:12 0.00011536
8 *32:10 0.000552116
9 *32:33 *55:10 0
10 *197:B1 *32:10 3.22051e-05
11 *198:A *32:25 0.000297137
12 *199:A1 *32:25 0.000294396
13 *199:A2 *32:25 2.4754e-05
14 *199:A2 *32:33 0.00014196
15 *200:A *32:33 5.29672e-05
16 *207:A1 *32:10 0.000132665
17 *29:10 *32:10 8.08511e-05
18 *29:25 *32:25 0.00014196
19 *29:47 *32:10 1.19796e-05
20 *30:10 *32:10 6.48142e-05
21 *31:8 *32:10 0
22 *31:8 *32:33 1.83564e-05
23 *31:12 *32:25 2.93845e-05
*RES
1 *197:Y *32:10 47.1557 
2 *32:10 *32:12 15 
3 *32:12 *207:A2 23 
4 *32:12 *32:25 6.04857 
5 *32:25 *32:33 33.8529 
6 *32:33 *199:B1_N 23 
7 *32:25 *198:C_N 23 
*END

*D_NET *33 0.00327223
*CONN
*I *213:A_N I *D sky130_fd_sc_hd__nand2b_1
*I *200:B I *D sky130_fd_sc_hd__and3_1
*I *223:A1 I *D sky130_fd_sc_hd__a21oi_1
*I *198:X O *D sky130_fd_sc_hd__or3b_1
*CAP
1 *213:A_N 0.000336716
2 *200:B 0
3 *223:A1 0.000361223
4 *198:X 6.55294e-05
5 *33:16 0.000975464
6 *33:8 0.00101649
7 *213:A_N *42:10 0.000151817
8 *213:A_N *45:10 0
9 *213:A_N *45:21 5.50049e-05
10 *223:A1 *35:8 6.07611e-06
11 *223:A1 *55:10 0.000158047
12 *33:8 *42:10 4.08641e-05
13 *33:16 *35:8 4.08537e-05
14 *33:16 *55:10 3.47776e-05
15 *33:16 *60:8 2.93747e-05
16 *29:47 *213:A_N 0
*RES
1 *198:X *33:8 39.2014 
2 *33:8 *33:16 38.4929 
3 *33:16 *223:A1 43.9657 
4 *33:16 *200:B 38 
5 *33:8 *213:A_N 45.4571 
*END

*D_NET *34 0.000861246
*CONN
*I *200:C I *D sky130_fd_sc_hd__and3_1
*I *223:A2 I *D sky130_fd_sc_hd__a21oi_1
*I *199:Y O *D sky130_fd_sc_hd__o21bai_1
*CAP
1 *200:C 0.000195727
2 *223:A2 0
3 *199:Y 0
4 *34:10 6.73893e-05
5 *34:4 0.000263116
6 *34:10 *55:10 4.2361e-05
7 *200:A *200:C 0.000140259
8 *200:A *34:10 0.000140949
9 *27:23 *34:10 1.14452e-05
*RES
1 *199:Y *34:4 23 
2 *34:4 *34:10 31.9057 
3 *34:10 *223:A2 23 
4 *34:4 *200:C 25.61 
*END

*D_NET *35 0.00133629
*CONN
*I *210:A I *D sky130_fd_sc_hd__nand2_1
*I *211:A I *D sky130_fd_sc_hd__or2_1
*I *224:A I *D sky130_fd_sc_hd__nor2_1
*I *200:X O *D sky130_fd_sc_hd__and3_1
*CAP
1 *210:A 7.28091e-05
2 *211:A 0
3 *224:A 4.56652e-05
4 *200:X 0.000119445
5 *35:23 0.000381637
6 *35:8 0.000473938
7 *210:A *211:B 5.67058e-05
8 *210:A *45:10 4.06849e-05
9 *224:A *60:8 9.84794e-05
10 *35:8 *55:10 0
11 P[3] *35:8 0
12 *223:A1 *35:8 6.07611e-06
13 *33:16 *35:8 4.08537e-05
*RES
1 *200:X *35:8 40.2579 
2 *35:8 *224:A 39.0979 
3 *35:8 *35:23 20.2614 
4 *35:23 *211:A 23 
5 *35:23 *210:A 25.0714 
*END

*D_NET *36 0.000744809
*CONN
*I *206:A I *D sky130_fd_sc_hd__xor2_2
*I *201:Y O *D sky130_fd_sc_hd__nand2_1
*CAP
1 *206:A 0.00015128
2 *201:Y 7.87035e-05
3 *36:8 0.000229984
4 *206:A *206:B 4.70852e-05
5 *206:A *71:10 9.5877e-05
6 *36:8 *202:B1 0.000141879
*RES
1 *201:Y *36:8 39.9057 
2 *36:8 *206:A 40.5271 
*END

*D_NET *37 0.00110608
*CONN
*I *214:A3 I *D sky130_fd_sc_hd__a31o_1
*I *205:B1 I *D sky130_fd_sc_hd__o21ai_1
*I *202:X O *D sky130_fd_sc_hd__a22o_1
*CAP
1 *214:A3 8.52431e-05
2 *205:B1 0
3 *202:X 0.000152043
4 *37:12 8.52431e-05
5 *37:10 0.000152043
6 *214:A3 *201:B 3.71369e-05
7 *214:A3 *214:A2 5.3304e-05
8 *214:A3 *70:21 0.00026808
9 *37:10 *201:B 0
10 *37:10 *202:B1 0.000183763
11 *37:10 *38:10 1.22803e-05
12 *37:10 *38:22 1.34542e-05
13 *205:A1 *214:A3 6.349e-05
*RES
1 *202:X *37:10 40.8793 
2 *37:10 *37:12 15 
3 *37:12 *205:B1 23 
4 *37:12 *214:A3 26.0036 
*END

*D_NET *38 0.0026211
*CONN
*I *221:A0 I *D sky130_fd_sc_hd__mux2_1
*I *205:A2 I *D sky130_fd_sc_hd__o21ai_1
*I *204:B I *D sky130_fd_sc_hd__nor2_1
*I *203:Y O *D sky130_fd_sc_hd__nand2_1
*CAP
1 *221:A0 0.000173583
2 *205:A2 0
3 *204:B 0
4 *203:Y 8.25057e-05
5 *38:22 0.0004506
6 *38:10 0.000635861
7 *38:8 0.00044135
8 *221:A0 *48:8 1.14452e-05
9 *221:A0 *48:23 0.0002129
10 *221:A0 *52:20 0
11 *221:A0 *53:8 0.000114083
12 *221:A0 *67:32 0
13 *221:A0 *71:10 1.69668e-05
14 *38:8 *71:19 5.12254e-05
15 *38:10 *202:B1 1.17152e-05
16 *38:10 *214:A2 2.75733e-06
17 *38:10 *40:8 0.000166513
18 *38:10 *48:8 0.000140262
19 *38:10 *66:80 0
20 *38:10 *71:10 6.32688e-05
21 *38:22 *201:B 4.77164e-06
22 *38:22 *214:A2 3.34818e-06
23 *38:22 *70:25 6.10551e-06
24 *38:22 *71:34 6.10551e-06
25 *37:10 *38:10 1.22803e-05
26 *37:10 *38:22 1.34542e-05
*RES
1 *203:Y *38:8 39.0979 
2 *38:8 *38:10 5.075 
3 *38:10 *38:22 32.4709 
4 *38:22 *204:B 23 
5 *38:10 *205:A2 38 
6 *38:8 *221:A0 42.64 
*END

*D_NET *39 0.000179095
*CONN
*I *214:B1 I *D sky130_fd_sc_hd__a31o_1
*I *204:Y O *D sky130_fd_sc_hd__nor2_1
*CAP
1 *214:B1 6.0377e-05
2 *204:Y 6.0377e-05
3 *204:A *214:B1 5.83407e-05
*RES
1 *204:Y *214:B1 47.5743 
*END

*D_NET *40 0.000505582
*CONN
*I *206:B I *D sky130_fd_sc_hd__xor2_2
*I *205:Y O *D sky130_fd_sc_hd__o21ai_1
*CAP
1 *206:B 3.35774e-05
2 *205:Y 6.88457e-05
3 *40:8 0.000102423
4 *40:8 *202:B1 7.69935e-05
5 *40:8 *71:10 1.01436e-05
6 *206:A *206:B 4.70852e-05
7 *38:10 *40:8 0.000166513
*RES
1 *205:Y *40:8 40.2579 
2 *40:8 *206:B 15.5489 
*END

*D_NET *41 0.00380948
*CONN
*I *213:B I *D sky130_fd_sc_hd__nand2b_1
*I *208:B I *D sky130_fd_sc_hd__nand2_1
*I *215:A2 I *D sky130_fd_sc_hd__a21oi_1
*I *209:A I *D sky130_fd_sc_hd__xnor2_1
*I *206:X O *D sky130_fd_sc_hd__xor2_2
*CAP
1 *213:B 0.000101183
2 *208:B 0
3 *215:A2 0
4 *209:A 0.000461394
5 *206:X 0.000537352
6 *41:36 0.000177162
7 *41:25 0.000349854
8 *41:10 0.00127262
9 *213:B *217:B 6.87362e-05
10 *213:B *219:B2 9.12479e-05
11 *213:B *45:21 0.000275355
12 *213:B *45:23 5.79559e-05
13 *41:10 *71:34 0
14 *41:36 *219:B2 0.000144903
15 *208:A *41:36 1.42253e-05
16 *29:47 *213:B 0.000177541
17 *29:47 *41:10 0
18 *29:47 *41:25 0
19 *29:47 *41:36 3.11552e-05
20 *29:55 *41:25 3.04661e-05
21 *29:55 *41:36 1.83327e-05
*RES
1 *206:X *41:10 46.12 
2 *41:10 *209:A 45.2914 
3 *41:10 *41:25 18.9357 
4 *41:25 *215:A2 23 
5 *41:25 *41:36 2.56857 
6 *41:36 *208:B 23 
7 *41:36 *213:B 28.5411 
*END

*D_NET *42 0.000724328
*CONN
*I *209:B I *D sky130_fd_sc_hd__xnor2_1
*I *207:Y O *D sky130_fd_sc_hd__a21oi_1
*CAP
1 *209:B 0
2 *207:Y 0.00024968
3 *42:10 0.00024968
4 *198:A *42:10 3.22879e-05
5 *213:A_N *42:10 0.000151817
6 *29:47 *42:10 0
7 *33:8 *42:10 4.08641e-05
*RES
1 *207:Y *42:10 43.6964 
2 *42:10 *209:B 38 
*END

*D_NET *43 0.000724778
*CONN
*I *219:A1 I *D sky130_fd_sc_hd__o22a_1
*I *208:Y O *D sky130_fd_sc_hd__nand2_1
*CAP
1 *219:A1 0
2 *208:Y 0.000279838
3 *43:8 0.000279838
4 *43:8 *219:B2 9.97524e-06
5 *215:B1 *43:8 1.31081e-05
6 *29:47 *43:8 4.2573e-05
7 *29:55 *43:8 9.94453e-05
*RES
1 *208:Y *43:8 27.205 
2 *43:8 *219:A1 23 
*END

*D_NET *44 0.000465263
*CONN
*I *210:B I *D sky130_fd_sc_hd__nand2_1
*I *211:B I *D sky130_fd_sc_hd__or2_1
*I *209:Y O *D sky130_fd_sc_hd__xnor2_1
*CAP
1 *210:B 0
2 *211:B 8.29124e-05
3 *209:Y 0.000114719
4 *44:8 0.000197632
5 *211:B *45:10 1.32939e-05
6 *210:A *211:B 5.67058e-05
*RES
1 *209:Y *44:8 25.4236 
2 *44:8 *211:B 25.0714 
3 *44:8 *210:B 23 
*END

*D_NET *45 0.0037497
*CONN
*I *218:A1 I *D sky130_fd_sc_hd__o21ba_1
*I *219:B2 I *D sky130_fd_sc_hd__o22a_1
*I *217:A I *D sky130_fd_sc_hd__and3_1
*I *212:A I *D sky130_fd_sc_hd__and2_1
*I *210:Y O *D sky130_fd_sc_hd__nand2_1
*CAP
1 *218:A1 0
2 *219:B2 0.000536346
3 *217:A 0
4 *212:A 0
5 *210:Y 0.000196152
6 *45:45 0.000110013
7 *45:23 0.000561303
8 *45:21 0.00064749
9 *45:12 0.00051252
10 *45:10 0.000196152
11 *219:B2 *219:A2 2.92911e-06
12 *219:B2 *48:23 5.26733e-06
13 *45:10 *46:8 4.58924e-05
14 *45:21 *50:29 2.07921e-05
15 *45:45 *50:29 0.000112294
16 *45:45 *51:8 7.35193e-06
17 *210:A *45:10 4.06849e-05
18 *211:B *45:10 1.32939e-05
19 *213:A_N *45:10 0
20 *213:A_N *45:21 5.50049e-05
21 *213:B *219:B2 9.12479e-05
22 *213:B *45:21 0.000275355
23 *213:B *45:23 5.79559e-05
24 *215:B1 *219:B2 9.77405e-05
25 *29:55 *219:B2 9.03964e-06
26 *41:36 *219:B2 0.000144903
27 *43:8 *219:B2 9.97524e-06
*RES
1 *210:Y *45:10 41.48 
2 *45:10 *45:12 15 
3 *45:12 *212:A 23 
4 *45:12 *45:21 10.0464 
5 *45:21 *45:23 0.621429 
6 *45:23 *217:A 23 
7 *45:23 *219:B2 31.1614 
8 *45:21 *45:45 32.2579 
9 *45:45 *218:A1 23 
*END

*D_NET *46 0.000350308
*CONN
*I *212:B I *D sky130_fd_sc_hd__and2_1
*I *211:X O *D sky130_fd_sc_hd__or2_1
*CAP
1 *212:B 4.24511e-05
2 *211:X 0.000109756
3 *46:8 0.000152208
4 *45:10 *46:8 4.58924e-05
*RES
1 *211:X *46:8 40.2579 
2 *46:8 *212:B 38.6214 
*END

*D_NET *47 0.0004511
*CONN
*I *217:B I *D sky130_fd_sc_hd__and3_1
*I *213:Y O *D sky130_fd_sc_hd__nand2b_1
*CAP
1 *217:B 0.00016368
2 *213:Y 0.00016368
3 *213:B *217:B 6.87362e-05
4 *29:47 *217:B 5.50049e-05
*RES
1 *213:Y *217:B 48.5271 
*END

*D_NET *48 0.00287668
*CONN
*I *219:A2 I *D sky130_fd_sc_hd__o22a_1
*I *216:A I *D sky130_fd_sc_hd__xnor2_1
*I *220:C I *D sky130_fd_sc_hd__and3_1
*I *214:X O *D sky130_fd_sc_hd__a31o_1
*CAP
1 *219:A2 4.96187e-05
2 *216:A 0
3 *220:C 1.99371e-05
4 *214:X 0.000127653
5 *48:29 0.000164826
6 *48:23 0.000866566
7 *48:8 0.000799712
8 *220:C *71:19 9.70259e-06
9 *48:8 *66:80 0.000151899
10 *48:23 *221:S 5.50106e-05
11 *48:23 *66:80 1.83667e-05
12 *48:23 *71:34 0
13 *48:29 *49:8 4.73585e-05
14 *48:29 *50:12 7.03663e-05
15 *48:29 *52:8 0
16 *215:B1 *219:A2 2.45549e-06
17 *219:B2 *219:A2 2.92911e-06
18 *219:B2 *48:23 5.26733e-06
19 *221:A0 *48:8 1.14452e-05
20 *221:A0 *48:23 0.0002129
21 *28:10 *48:29 0.000120405
22 *38:10 *48:8 0.000140262
*RES
1 *214:X *48:8 42.0186 
2 *48:8 *220:C 38.2279 
3 *48:8 *48:23 24.3007 
4 *48:23 *48:29 33.6664 
5 *48:29 *216:A 23 
6 *48:23 *219:A2 23.6214 
*END

*D_NET *49 0.00067034
*CONN
*I *216:B I *D sky130_fd_sc_hd__xnor2_1
*I *215:Y O *D sky130_fd_sc_hd__a21oi_1
*CAP
1 *216:B 5.41226e-05
2 *215:Y 0.000201862
3 *49:8 0.000255985
4 *216:B *50:12 3.42398e-05
5 *28:10 *49:8 4.40319e-05
6 *29:55 *49:8 3.27399e-05
7 *48:29 *49:8 4.73585e-05
*RES
1 *215:Y *49:8 41.6664 
2 *49:8 *216:B 39.0979 
*END

*D_NET *50 0.00199447
*CONN
*I *218:A2 I *D sky130_fd_sc_hd__o21ba_1
*I *217:C I *D sky130_fd_sc_hd__and3_1
*I *219:B1 I *D sky130_fd_sc_hd__o22a_1
*I *216:Y O *D sky130_fd_sc_hd__xnor2_1
*CAP
1 *218:A2 6.1626e-05
2 *217:C 0
3 *219:B1 0
4 *216:Y 0
5 *50:29 7.12535e-05
6 *50:21 0.000518025
7 *50:12 0.000312121
8 *50:4 0.000697266
9 *50:12 *52:8 4.334e-05
10 *50:29 *51:8 5.31444e-05
11 *216:B *50:12 3.42398e-05
12 *45:21 *50:29 2.07921e-05
13 *45:45 *50:29 0.000112294
14 *48:29 *50:12 7.03663e-05
*RES
1 *216:Y *50:4 23 
2 *50:4 *50:12 34.9093 
3 *50:12 *219:B1 23 
4 *50:4 *50:21 5.88286 
5 *50:21 *50:29 31.7814 
6 *50:29 *217:C 23 
7 *50:21 *218:A2 24.1186 
*END

*D_NET *51 0.000384803
*CONN
*I *218:B1_N I *D sky130_fd_sc_hd__o21ba_1
*I *217:X O *D sky130_fd_sc_hd__and3_1
*CAP
1 *218:B1_N 6.80678e-05
2 *217:X 9.40858e-05
3 *51:8 0.000162154
4 *45:45 *51:8 7.35193e-06
5 *50:29 *51:8 5.31444e-05
*RES
1 *217:X *51:8 39.9057 
2 *51:8 *218:B1_N 39.0979 
*END

*D_NET *52 0.0016335
*CONN
*I *222:A I *D sky130_fd_sc_hd__xor2_1
*I *225:A1_N I *D sky130_fd_sc_hd__a2bb2o_1
*I *219:X O *D sky130_fd_sc_hd__o22a_1
*CAP
1 *222:A 0
2 *225:A1_N 0
3 *219:X 9.56662e-05
4 *52:20 0.000278522
5 *52:12 0.000689672
6 *52:8 0.000506816
7 *52:20 *54:19 0
8 *52:20 *63:10 1.94812e-05
9 *221:A0 *52:20 0
10 *48:29 *52:8 0
11 *50:12 *52:8 4.334e-05
*RES
1 *219:X *52:8 39.9057 
2 *52:8 *52:12 22.2914 
3 *52:12 *52:20 35.1371 
4 *52:20 *225:A1_N 23 
5 *52:12 *222:A 23 
*END

*D_NET *53 0.00105786
*CONN
*I *221:S I *D sky130_fd_sc_hd__mux2_1
*I *225:B1 I *D sky130_fd_sc_hd__a2bb2o_1
*I *220:X O *D sky130_fd_sc_hd__and3_1
*CAP
1 *221:S 8.52274e-05
2 *225:B1 0.000100938
3 *220:X 6.40335e-05
4 *53:10 0.000186165
5 *53:8 6.40335e-05
6 *221:S *221:A1 9.5877e-05
7 *225:B1 *221:A1 0.000140259
8 *225:B1 *225:A2_N 2.32004e-05
9 *225:B1 *225:B2 9.41435e-05
10 *53:8 *221:A1 9.48381e-06
11 *53:8 *67:32 2.54046e-05
12 *221:A0 *53:8 0.000114083
13 *48:23 *221:S 5.50106e-05
*RES
1 *220:X *53:8 39.5536 
2 *53:8 *53:10 15 
3 *53:10 *225:B1 25.5479 
4 *53:10 *221:S 25.0714 
*END

*D_NET *54 0.000654605
*CONN
*I *222:B I *D sky130_fd_sc_hd__xor2_1
*I *225:A2_N I *D sky130_fd_sc_hd__a2bb2o_1
*I *221:X O *D sky130_fd_sc_hd__mux2_1
*CAP
1 *222:B 0
2 *225:A2_N 0.000162509
3 *221:X 0
4 *54:19 0.000138146
5 *54:4 0.000300656
6 *225:A2_N *221:A1 1.24376e-05
7 *225:A2_N *225:B2 1.76557e-05
8 *225:B1 *225:A2_N 2.32004e-05
9 *52:20 *54:19 0
*RES
1 *221:X *54:4 23 
2 *54:4 *225:A2_N 26.3764 
3 *54:4 *54:19 32.2579 
4 *54:19 *222:B 23 
*END

*D_NET *55 0.00121193
*CONN
*I *224:B I *D sky130_fd_sc_hd__nor2_1
*I *223:Y O *D sky130_fd_sc_hd__a21oi_1
*CAP
1 *224:B 0
2 *223:Y 0.00047223
3 *55:10 0.00047223
4 *223:A1 *55:10 0.000158047
5 *223:B1 *55:10 3.22879e-05
6 *27:23 *55:10 0
7 *31:8 *55:10 0
8 *32:33 *55:10 0
9 *33:16 *55:10 3.47776e-05
10 *34:10 *55:10 4.2361e-05
11 *35:8 *55:10 0
*RES
1 *223:Y *55:10 47.4871 
2 *55:10 *224:B 38 
*END

*D_NET *56 0.00065853
*CONN
*I *226:A I *D sky130_fd_sc_hd__clkbuf_1
*I *181:X O *D sky130_fd_sc_hd__and2b_1
*CAP
1 *226:A 0.000142578