*SPEF "ieee 1481-1999"
*DESIGN "SARSA_WInd_e9"
*DATE "14:01:49 Tuesday September 16, 2025"
*VENDOR "The OpenROAD Project"
*PROGRAM "OpenROAD"
*VERSION "edf00dff99f6c40d67a30c0e22a8191c5d2ed9d6"
*DESIGN_FLOW "NAME_SCOPE LOCAL" "PIN_CAP NONE"
*DIVIDER /
*DELIMITER :
*BUS_DELIMITER []
*T_UNIT 1 NS
*C_UNIT 1 PF
*R_UNIT 1 OHM
*L_UNIT 1 HENRY

*NAME_MAP
*1 A[0]
*2 A[1]
*3 B[0]
*4 B[1]
*5 P[0]
*6 P[1]
*7 P[2]
*8 net8
*11 net1
*12 net2
*13 net3
*14 net4
*15 net5
*16 net6
*17 net7
*18 pp0
*19 pp1
*20 FILLER_0_15
*21 FILLER_0_27
*22 FILLER_0_29
*23 FILLER_0_3
*24 FILLER_0_41
*25 FILLER_0_53
*26 FILLER_0_57
*27 FILLER_0_69
*28 FILLER_1_15
*29 FILLER_1_27
*30 FILLER_1_3
*31 FILLER_1_39
*32 FILLER_1_51
*33 FILLER_1_55
*34 FILLER_1_57
*35 FILLER_1_69
*36 FILLER_2_18
*37 FILLER_2_26
*38 FILLER_2_29
*39 FILLER_2_41
*40 FILLER_2_53
*41 FILLER_2_6
*42 FILLER_2_65
*43 FILLER_2_77
*44 FILLER_3_11
*45 FILLER_3_17
*46 FILLER_3_21
*47 FILLER_3_25
*48 FILLER_3_3
*49 FILLER_3_37
*50 FILLER_3_49
*51 FILLER_3_55
*52 FILLER_3_57
*53 FILLER_3_69
*54 FILLER_4_18
*55 FILLER_4_26
*56 FILLER_4_29
*57 FILLER_4_41
*58 FILLER_4_53
*59 FILLER_4_6
*60 FILLER_4_65
*61 FILLER_5_17
*62 FILLER_5_29
*63 FILLER_5_41
*64 FILLER_5_53
*65 FILLER_5_57
*66 FILLER_5_6
*67 FILLER_5_69
*68 FILLER_5_77
*69 FILLER_6_16
*70 FILLER_6_25
*71 FILLER_6_29
*72 FILLER_6_41
*73 FILLER_6_53
*74 FILLER_6_65
*75 FILLER_6_7
*76 FILLER_7_18
*77 FILLER_7_30
*78 FILLER_7_42
*79 FILLER_7_54
*80 FILLER_7_57
*81 FILLER_7_6
*82 FILLER_7_69
*83 FILLER_8_15
*84 FILLER_8_27
*85 FILLER_8_29
*86 FILLER_8_3
*87 FILLER_8_41
*88 FILLER_8_53
*89 FILLER_8_65
*90 FILLER_8_77
*91 FILLER_9_15
*92 FILLER_9_27
*93 FILLER_9_29
*94 FILLER_9_3
*95 FILLER_9_41
*96 FILLER_9_53
*97 FILLER_9_57
*98 FILLER_9_69
*99 PHY_EDGE_ROW_0_Left_10
*100 PHY_EDGE_ROW_0_Right_0
*101 PHY_EDGE_ROW_1_Left_11
*102 PHY_EDGE_ROW_1_Right_1
*103 PHY_EDGE_ROW_2_Left_12
*104 PHY_EDGE_ROW_2_Right_2
*105 PHY_EDGE_ROW_3_Left_13
*106 PHY_EDGE_ROW_3_Right_3
*107 PHY_EDGE_ROW_4_Left_14
*108 PHY_EDGE_ROW_4_Right_4
*109 PHY_EDGE_ROW_5_Left_15
*110 PHY_EDGE_ROW_5_Right_5
*111 PHY_EDGE_ROW_6_Left_16
*112 PHY_EDGE_ROW_6_Right_6
*113 PHY_EDGE_ROW_7_Left_17
*114 PHY_EDGE_ROW_7_Right_7
*115 PHY_EDGE_ROW_8_Left_18
*116 PHY_EDGE_ROW_8_Right_8
*117 PHY_EDGE_ROW_9_Left_19
*118 PHY_EDGE_ROW_9_Right_9
*119 SARSA_WInd_e9_8
*120 TAP_TAPCELL_ROW_0_20
*121 TAP_TAPCELL_ROW_0_21
*122 TAP_TAPCELL_ROW_1_22
*123 TAP_TAPCELL_ROW_2_23
*124 TAP_TAPCELL_ROW_3_24
*125 TAP_TAPCELL_ROW_4_25
*126 TAP_TAPCELL_ROW_5_26
*127 TAP_TAPCELL_ROW_6_27
*128 TAP_TAPCELL_ROW_7_28
*129 TAP_TAPCELL_ROW_8_29
*130 TAP_TAPCELL_ROW_9_30
*131 TAP_TAPCELL_ROW_9_31
*132 _0_
*133 _1_
*134 _3_
*135 _4_
*136 _5_
*137 input1
*138 input2
*139 input3
*140 input4
*141 output5
*142 output6
*143 output7

*PORTS
A[0] I
A[1] I
B[0] I
B[1] I
P[0] O
P[1] O
P[2] O
P[3] O

*D_NET *1 0.000666589
*CONN
*P A[0] I
*I *137:A I *D sky130_fd_sc_hd__clkbuf_1
*CAP
1 A[0] 0.000320228
2 *137:A 0
3 *1:17 0.000320228
4 *1:17 *2:17 2.61329e-05
*RES
1 A[0] *1:17 27.1584 
2 *1:17 *137:A 23 
*END

*D_NET *2 0.000747356
*CONN
*P A[1] I
*I *138:A I *D sky130_fd_sc_hd__clkbuf_1
*CAP
1 A[1] 0.000346167
2 *138:A 0
3 *2:17 0.000346167
4 *2:17 *3:17 2.88889e-05
5 *2:17 *13:8 0
6 *1:17 *2:17 2.61329e-05
*RES
1 A[1] *2:17 28.2148 
2 *2:17 *138:A 23 
*END

*D_NET *3 0.00071699
*CONN
*P B[0] I
*I *139:A I *D sky130_fd_sc_hd__clkbuf_1
*CAP
1 B[0] 0.000330094
2 *139:A 0
3 *3:17 0.000330094
4 *3:17 P[1] 2.79122e-05
5 *2:17 *3:17 2.88889e-05
*RES
1 B[0] *3:17 27.8627 
2 *3:17 *139:A 23 
*END

*D_NET *4 0.000616196
*CONN
*P B[1] I
*I *140:A I *D sky130_fd_sc_hd__clkbuf_1
*CAP
1 B[1] 0.000297475
2 *140:A 0.000297475
3 *140:A P[1] 2.12457e-05
*RES
1 B[1] *140:A 49.8062 
*END

*D_NET *5 0.000686769
*CONN
*P P[0] O
*I *141:X O *D sky130_fd_sc_hd__buf_2
*CAP
1 P[0] 0.00027034
2 *141:X 0.00027034
3 P[0] P[2] 0
4 P[0] P[3] 8.06147e-05
5 P[0] *15:12 6.54744e-05
*RES
1 *141:X P[0] 48.5734 
*END

*D_NET *6 0.000554623
*CONN
*P P[1] O
*I *142:X O *D sky130_fd_sc_hd__buf_2
*CAP
1 P[1] 0.000252732
2 *142:X 0.000252732
3 *140:A P[1] 2.12457e-05
4 *3:17 P[1] 2.79122e-05
*RES
1 *142:X P[1] 47.1648 
*END

*D_NET *7 0.000532617
*CONN
*P P[2] O
*I *143:X O *D sky130_fd_sc_hd__buf_2
*CAP
1 P[2] 0.000227187
2 *143:X 0.000227187
3 P[2] P[3] 7.82427e-05
4 P[0] P[2] 0
*RES
1 *143:X P[2] 47.1648 
*END

*D_NET *8 0.000557862
*CONN
*P P[3] O
*I *119:LO O *D sky130_fd_sc_hd__conb_1
*CAP
1 P[3] 0.000199502
2 *119:LO 0.000199502
3 P[0] P[3] 8.06147e-05
4 P[2] P[3] 7.82427e-05
*RES
1 *119:LO P[3] 47.7832 
*END

*D_NET *11 0.000925187
*CONN
*I *132:B I *D sky130_fd_sc_hd__and2_1
*I *137:X O *D sky130_fd_sc_hd__clkbuf_1
*CAP
1 *132:B 0
2 *137:X 0.000462593
3 *11:10 0.000462593
*RES
1 *137:X *11:10 44.6907 
2 *11:10 *132:B 38 
*END

*D_NET *12 0.000947783
*CONN
*I *133:B I *D sky130_fd_sc_hd__and2_1
*I *138:X O *D sky130_fd_sc_hd__clkbuf_1
*CAP
1 *133:B 0
2 *138:X 0.000473892
3 *12:10 0.000473892
4 *12:10 *13:8 0
*RES
1 *138:X *12:10 44.6907 
2 *12:10 *133:B 38 
*END

*D_NET *13 0.000909196
*CONN
*I *132:A I *D sky130_fd_sc_hd__and2_1
*I *139:X O *D sky130_fd_sc_hd__clkbuf_1
*CAP
1 *132:A 0.00019167
2 *139:X 0.000262928
3 *13:8 0.000454598
4 *2:17 *13:8 0
5 *12:10 *13:8 0
*RES
1 *139:X *13:8 42.7229 
2 *13:8 *132:A 41.48 
*END

*D_NET *14 0.00148741
*CONN
*I *135:A I *D sky130_fd_sc_hd__clkbuf_1
*I *133:A I *D sky130_fd_sc_hd__and2_1
*I *140:X O *D sky130_fd_sc_hd__clkbuf_1
*CAP
1 *135:A 0
2 *133:A 0.000242701
3 *140:X 0.000501004
4 *14:10 0.000743704
5 *133:A *19:10 0
6 *14:10 *19:10 0
*RES
1 *140:X *14:10 45.1671 
2 *14:10 *133:A 41.8529 
3 *14:10 *135:A 38 
*END

*D_NET *15 0.00339253
*CONN
*I *141:A I *D sky130_fd_sc_hd__buf_2
*I *134:X O *D sky130_fd_sc_hd__clkbuf_1
*CAP
1 *141:A 0
2 *134:X 0.00151371
3 *15:12 0.000149813
4 *15:6 0.00166353
5 P[0] *15:12 6.54744e-05
*RES
1 *134:X *15:6 48.3957 
2 *15:6 *15:12 33.3143 
3 *15:12 *141:A 23 
*END

*D_NET *16 0.000454896
*CONN
*I *142:A I *D sky130_fd_sc_hd__buf_2
*I *135:X O *D sky130_fd_sc_hd__clkbuf_1
*CAP
1 *142:A 0
2 *135:X 0.000227448
3 *16:8 0.000227448
*RES
1 *135:X *16:8 27.3293 
2 *16:8 *142:A 23 
*END

*D_NET *17 0.00306255
*CONN
*I *143:A I *D sky130_fd_sc_hd__buf_2
*I *136:X O *D sky130_fd_sc_hd__clkbuf_1
*CAP
1 *143:A 0
2 *136:X 0.00153127
3 *17:10 0.00153127
*RES
1 *136:X *17:10 49.39 
2 *17:10 *143:A 23 
*END

*D_NET *18 0.000323372
*CONN
*I *134:A I *D sky130_fd_sc_hd__clkbuf_1
*I *132:X O *D sky130_fd_sc_hd__and2_1
*CAP
1 *134:A 0.000161686
2 *132:X 0.000161686
*RES
1 *132:X *134:A 49.0036 
*END

*D_NET *19 0.000675939
*CONN
*I *136:A I *D sky130_fd_sc_hd__clkbuf_1
*I *133:X O *D sky130_fd_sc_hd__and2_1
*CAP
1 *136:A 0
2 *133:X 0.000337969
3 *19:10 0.000337969
4 *133:A *19:10 0
5 *14:10 *19:10 0
*RES
1 *133:X *19:10 42.9093 
2 *19:10 *136:A 38 
*END
