*SPEF "ieee 1481-1999"
*DESIGN "mult4_SarsaNStepsRuido_e9_SARSA_RUIDO_e9_SARSA_RUIDO_e9_SARSA_RUIDO_e9"
*DATE "11:55:31 Wednesday September 17, 2025"
*VENDOR "The OpenROAD Project"
*PROGRAM "OpenROAD"
*VERSION "edf00dff99f6c40d67a30c0e22a8191c5d2ed9d6"
*DESIGN_FLOW "NAME_SCOPE LOCAL" "PIN_CAP NONE"
*DIVIDER /
*DELIMITER :
*BUS_DELIMITER []
*T_UNIT 1 NS
*C_UNIT 1 PF
*R_UNIT 1 OHM
*L_UNIT 1 HENRY

*NAME_MAP
*1 A[0]
*2 A[1]
*3 A[2]
*4 A[3]
*5 B[0]
*6 B[1]
*7 B[2]
*8 B[3]
*9 net16
*10 P[1]
*11 P[2]
*12 P[3]
*13 P[4]
*14 P[5]
*15 P[6]
*16 P[7]
*19 _000_
*20 _001_
*21 _002_
*22 _003_
*23 _004_
*24 _005_
*25 _006_
*26 _007_
*27 _008_
*28 _009_
*29 _010_
*30 _011_
*31 _012_
*32 _013_
*33 _014_
*34 _015_
*35 _016_
*36 _017_
*37 _018_
*38 _019_
*39 _020_
*40 _021_
*41 _022_
*42 _023_
*43 _024_
*44 _025_
*45 _026_
*46 _027_
*47 _028_
*48 _029_
*49 _030_
*50 _031_
*51 _032_
*52 _033_
*53 _034_
*54 _035_
*55 _036_
*56 _037_
*57 _038_
*58 _039_
*59 _040_
*60 _041_
*61 _042_
*62 _043_
*63 _044_
*64 _045_
*65 _046_
*66 _047_
*67 _048_
*68 _049_
*69 _050_
*70 _051_
*71 _052_
*72 _053_
*73 _054_
*74 _055_
*75 _056_
*76 _057_
*77 net1
*78 net10
*79 net11
*80 net12
*81 net13
*82 net14
*83 net15
*84 net2
*85 net3
*86 net4
*87 net5
*88 net6
*89 net7
*90 net8
*91 net9
*92 FILLER_0_16
*93 FILLER_0_20
*94 FILLER_0_29
*95 FILLER_0_41
*96 FILLER_0_50
*97 FILLER_0_57
*98 FILLER_0_69
*99 FILLER_0_7
*100 FILLER_1_19
*101 FILLER_1_3
*102 FILLER_1_39
*103 FILLER_1_50
*104 FILLER_1_55
*105 FILLER_1_62
*106 FILLER_1_74
*107 FILLER_2_18
*108 FILLER_2_27
*109 FILLER_2_29
*110 FILLER_2_41
*111 FILLER_2_50
*112 FILLER_2_62
*113 FILLER_2_71
*114 FILLER_3_3
*115 FILLER_3_40
*116 FILLER_3_49
*117 FILLER_3_55
*118 FILLER_3_57
*119 FILLER_3_63
*120 FILLER_3_73
*121 FILLER_3_79
*122 FILLER_4_13
*123 FILLER_4_20
*124 FILLER_4_29
*125 FILLER_4_41
*126 FILLER_4_53
*127 FILLER_4_62
*128 FILLER_4_70
*129 FILLER_4_76
*130 FILLER_5_19
*131 FILLER_5_23
*132 FILLER_5_41
*133 FILLER_5_45
*134 FILLER_5_57
*135 FILLER_5_63
*136 FILLER_5_69
*137 FILLER_6_26
*138 FILLER_6_29
*139 FILLER_6_44
*140 FILLER_6_58
*141 FILLER_6_76
*142 FILLER_7_10
*143 FILLER_7_14
*144 FILLER_7_19
*145 FILLER_7_3
*146 FILLER_7_37
*147 FILLER_7_46
*148 FILLER_7_50
*149 FILLER_7_55
*150 FILLER_7_57
*151 FILLER_7_69
*152 FILLER_8_27
*153 FILLER_8_29
*154 FILLER_8_48
*155 FILLER_8_7
*156 FILLER_8_70
*157 FILLER_8_78
*158 FILLER_9_10
*159 FILLER_9_22
*160 FILLER_9_29
*161 FILLER_9_38
*162 FILLER_9_50
*163 FILLER_9_57
*164 FILLER_9_63
*165 FILLER_9_75
*166 PHY_EDGE_ROW_0_Left_10
*167 PHY_EDGE_ROW_0_Right_0
*168 PHY_EDGE_ROW_1_Left_11
*169 PHY_EDGE_ROW_1_Right_1
*170 PHY_EDGE_ROW_2_Left_12
*171 PHY_EDGE_ROW_2_Right_2
*172 PHY_EDGE_ROW_3_Left_13
*173 PHY_EDGE_ROW_3_Right_3
*174 PHY_EDGE_ROW_4_Left_14
*175 PHY_EDGE_ROW_4_Right_4
*176 PHY_EDGE_ROW_5_Left_15
*177 PHY_EDGE_ROW_5_Right_5
*178 PHY_EDGE_ROW_6_Left_16
*179 PHY_EDGE_ROW_6_Right_6
*180 PHY_EDGE_ROW_7_Left_17
*181 PHY_EDGE_ROW_7_Right_7
*182 PHY_EDGE_ROW_8_Left_18
*183 PHY_EDGE_ROW_8_Right_8
*184 PHY_EDGE_ROW_9_Left_19
*185 PHY_EDGE_ROW_9_Right_9
*186 TAP_TAPCELL_ROW_0_20
*187 TAP_TAPCELL_ROW_0_21
*188 TAP_TAPCELL_ROW_1_22
*189 TAP_TAPCELL_ROW_2_23
*190 TAP_TAPCELL_ROW_3_24
*191 TAP_TAPCELL_ROW_4_25
*192 TAP_TAPCELL_ROW_5_26
*193 TAP_TAPCELL_ROW_6_27
*194 TAP_TAPCELL_ROW_7_28
*195 TAP_TAPCELL_ROW_8_29
*196 TAP_TAPCELL_ROW_9_30
*197 TAP_TAPCELL_ROW_9_31
*198 _058_
*199 _059_
*200 _060_
*201 _061_
*202 _062_
*203 _063_
*204 _064_
*205 _065_
*206 _066_
*207 _067_
*208 _068_
*209 _069_
*210 _070_
*211 _071_
*212 _072_
*213 _073_
*214 _074_
*215 _075_
*216 _076_
*217 _077_
*218 _078_
*219 _079_
*220 _080_
*221 _081_
*222 _082_
*223 _083_
*224 _084_
*225 _085_
*226 _086_
*227 _087_
*228 _088_
*229 _089_
*230 _090_
*231 _091_
*232 _092_
*233 _093_
*234 _094_
*235 _095_
*236 _096_
*237 _097_
*238 _098_
*239 _099_
*240 _100_
*241 _101_
*242 _102_
*243 _103_
*244 _104_
*245 _105_
*246 _106_
*247 _107_
*248 _108_
*249 _109_
*250 _110_
*251 _111_
*252 _112_
*253 _113_
*254 _114_
*255 _115_
*256 _116_
*257 _117_
*258 _118_
*259 _119_
*260 _120_
*261 _121_
*262 _122_
*263 input1
*264 input2
*265 input3
*266 input4
*267 input5
*268 input6
*269 input7
*270 input8
*271 mult4_SarsaNStepsRuido_e9_SARSA_RUIDO_e9_SARSA_RUIDO_e9_SARSA_RUIDO_e9_16
*272 output10
*273 output11
*274 output12
*275 output13
*276 output14
*277 output15
*278 output9

*PORTS
A[0] I
A[1] I
A[2] I
A[3] I
B[0] I
B[1] I
B[2] I
B[3] I
P[0] O
P[1] O
P[2] O
P[3] O
P[4] O
P[5] O
P[6] O
P[7] O

*D_NET *1 0.00068614
*CONN
*P A[0] I
*I *263:A I *D sky130_fd_sc_hd__dlymetal6s2s_1
*CAP
1 A[0] 0.000314669
2 *263:A 0
3 *1:17 0.000314669
4 *1:17 *223:C 0
5 *1:17 *5:17 2.88889e-05
6 *1:17 *7:17 0
7 *1:17 *8:11 2.79122e-05
*RES
1 A[0] *1:17 27.5105 
2 *1:17 *263:A 23 
*END

*D_NET *2 0.000929838
*CONN
*P A[1] I
*I *264:A I *D sky130_fd_sc_hd__clkbuf_2
*CAP
1 A[1] 0.00044876
2 *264:A 0
3 *2:17 0.00044876
4 *2:17 *6:17 3.23168e-05
5 *2:17 *84:30 0
*RES
1 A[1] *2:17 29.7477 
2 *2:17 *264:A 23 
*END

*D_NET *3 0.000676914
*CONN
*P A[2] I
*I *265:A I *D sky130_fd_sc_hd__clkbuf_2
*CAP
1 A[2] 0.000322833
2 *265:A 0
3 *3:17 0.000322833
4 *3:17 *266:A 3.12475e-05
*RES
1 A[2] *3:17 27.2827 
2 *3:17 *265:A 23 
*END

*D_NET *4 0.00101988
*CONN
*P A[3] I
*I *266:A I *D sky130_fd_sc_hd__buf_1
*CAP
1 A[3] 0.000419904
2 *266:A 0.000419904
3 *266:A *7:17 2.12457e-05
4 *266:A *8:11 0
5 *266:A *85:10 0
6 *266:A *86:12 0.00012758
7 *3:17 *266:A 3.12475e-05
*RES
1 A[3] *266:A 49.8874 
*END

*D_NET *5 0.000739088
*CONN
*P B[0] I
*I *267:A I *D sky130_fd_sc_hd__dlymetal6s2s_1
*CAP
1 B[0] 0.000344946
2 *267:A 0
3 *5:17 0.000344946
4 *5:17 *6:17 2.0307e-05
5 *5:17 *84:41 0
6 *1:17 *5:17 2.88889e-05
*RES
1 B[0] *5:17 28.2148 
2 *5:17 *267:A 23 
*END

*D_NET *6 0.00070998
*CONN
*P B[1] I
*I *268:A I *D sky130_fd_sc_hd__dlymetal6s2s_1
*CAP
1 B[1] 0.000328678
2 *268:A 0
3 *6:17 0.000328678
4 *2:17 *6:17 3.23168e-05
5 *5:17 *6:17 2.0307e-05
*RES
1 B[1] *6:17 27.5105 
2 *6:17 *268:A 23 
*END

*D_NET *7 0.000777366
*CONN
*P B[2] I
*I *269:A I *D sky130_fd_sc_hd__buf_1
*CAP
1 B[2] 0.000362436
2 *269:A 0
3 *7:17 0.000362436
4 *7:17 *8:11 3.12475e-05
5 *266:A *7:17 2.12457e-05
6 *1:17 *7:17 0
*RES
1 B[2] *7:17 28.567 
2 *7:17 *269:A 23 
*END

*D_NET *8 0.00141758
*CONN
*P B[3] I
*I *270:A I *D sky130_fd_sc_hd__clkbuf_2
*CAP
1 B[3] 0.00047556
2 *270:A 0
3 *8:11 0.00047556
4 *8:11 *223:C 4.71358e-05
5 *8:11 *20:8 0
6 *8:11 *90:8 0.000132665
7 *8:11 *90:14 0.000227497
8 *266:A *8:11 0
9 *1:17 *8:11 2.79122e-05
10 *7:17 *8:11 3.12475e-05
*RES
1 B[3] *8:11 30.1512 
2 *8:11 *270:A 23 
*END

*D_NET *9 0.000477183
*CONN
*P P[0] O
*I *271:LO O *D sky130_fd_sc_hd__conb_1
*CAP
1 P[0] 0.000202511
2 *271:LO 0.000202511
3 P[0] P[3] 7.21596e-05
*RES
1 *271:LO P[0] 47.0789 
*END

*D_NET *10 0.00101304
*CONN
*P P[1] O
*I *278:X O *D sky130_fd_sc_hd__buf_2
*CAP
1 P[1] 0.000500302
2 *278:X 0.000500302
3 P[1] *208:A 1.24376e-05
*RES
1 *278:X P[1] 47.57 
*END

*D_NET *11 0.00103748
*CONN
*P P[2] O
*I *272:X O *D sky130_fd_sc_hd__buf_2
*CAP
1 P[2] 0.000491235
2 *272:X 0.000491235
3 P[2] *272:A 5.50106e-05
*RES
1 *272:X P[2] 47.57 
*END

*D_NET *12 0.000562631
*CONN
*P P[3] O
*I *273:X O *D sky130_fd_sc_hd__buf_2
*CAP
1 P[3] 0.000201547
2 *273:X 0.000201547
3 P[3] P[4] 8.73764e-05
4 P[0] P[3] 7.21596e-05
*RES
1 *273:X P[3] 47.5169 
*END

*D_NET *13 0.000739063
*CONN
*P P[4] O
*I *274:X O *D sky130_fd_sc_hd__buf_2
*CAP
1 P[4] 0.000260737
2 *274:X 0.000260737
3 P[4] P[5] 0
4 P[4] *80:8 0.000130212
5 P[3] P[4] 8.73764e-05
*RES
1 *274:X P[4] 48.5734 
*END

*D_NET *14 0.000511602
*CONN
*P P[5] O
*I *275:X O *D sky130_fd_sc_hd__buf_2
*CAP
1 P[5] 0.000255801
2 *275:X 0.000255801
3 P[5] P[6] 0
4 P[5] *69:10 0
5 P[4] P[5] 0
*RES
1 *275:X P[5] 47.1648 
*END

*D_NET *15 0.000699062
*CONN
*P P[6] O
*I *276:X O *D sky130_fd_sc_hd__buf_2
*CAP
1 P[6] 0.000329099
2 *276:X 0.000329099
3 P[6] *82:10 4.08641e-05
4 P[5] P[6] 0
*RES
1 *276:X P[6] 48.5734 
*END

*D_NET *16 0.000960449
*CONN
*P P[7] O
*I *277:X O *D sky130_fd_sc_hd__buf_2
*CAP
1 P[7] 0.000480224
2 *277:X 0.000480224
*RES
1 *277:X P[7] 48.5021 
*END

*D_NET *19 0.00102761
*CONN
*I *226:A1 I *D sky130_fd_sc_hd__a211o_1
*I *198:Y O *D sky130_fd_sc_hd__inv_2
*CAP
1 *226:A1 0
2 *198:Y 0.000402195
3 *19:10 0.000402195
4 *19:10 *206:A 2.18506e-05
5 *19:10 *206:B 0.000136743
6 *19:10 *36:35 0
7 *19:10 *42:10 1.14452e-05
8 *19:10 *84:64 5.31757e-05
9 *19:10 *86:33 0
*RES
1 *198:Y *19:10 43.8621 
2 *19:10 *226:A1 38 
*END

*D_NET *20 0.00191752
*CONN
*I *242:A1 I *D sky130_fd_sc_hd__a211o_1
*I *240:A2 I *D sky130_fd_sc_hd__a31oi_1
*I *199:Y O *D sky130_fd_sc_hd__inv_2
*CAP
1 *242:A1 0.000146837
2 *240:A2 0.000114256
3 *199:Y 0.000138189
4 *20:10 0.000261093
5 *20:8 0.000138189
6 *240:A2 *240:A1 9.58714e-05
7 *240:A2 *85:25 5.3304e-05
8 *242:A1 *240:A1 5.39884e-05
9 *242:A1 *242:A2 0.000318113
10 *242:A1 *260:B1 3.53115e-05
11 *242:A1 *58:12 7.41678e-05
12 *242:A1 *85:25 0.00014508
13 *242:A1 *89:57 0.000197432
14 *20:8 *240:B1 5.94125e-05
15 *20:8 *241:B 8.62783e-05
16 *20:8 *85:29 0
17 *20:8 *90:8 0
18 *8:11 *20:8 0
*RES
1 *199:Y *20:8 40.61 
2 *20:8 *20:10 15 
3 *20:10 *240:A2 25.4236 
4 *20:10 *242:A1 29.525 
*END

*D_NET *21 0.00177332
*CONN
*I *207:B I *D sky130_fd_sc_hd__nand2_1
*I *209:S I *D sky130_fd_sc_hd__mux2_1
*I *201:A I *D sky130_fd_sc_hd__inv_2
*I *200:X O *D sky130_fd_sc_hd__and3_1
*CAP
1 *207:B 0.000223363
2 *209:S 0
3 *201:A 3.83602e-05
4 *200:X 2.31613e-05
5 *21:19 0.000455301
6 *21:6 0.00029346
7 *201:A *84:12 4.00259e-06
8 *207:B *28:8 3.92407e-05
9 *207:B *50:14 5.67058e-05
10 *207:B *88:19 0
11 *207:B *88:40 8.11552e-05
12 *207:B *88:58 0
13 *207:B *88:88 2.76611e-06
14 *21:6 *208:A 2.30292e-05
15 *21:6 *22:10 1.32314e-05
16 *21:19 *208:A 0.000118217
17 *21:19 *22:10 5.67058e-05
18 *21:19 *28:8 0.000140949
19 *21:19 *88:40 0.000195907
20 *21:19 *91:10 7.76364e-06
*RES
1 *200:X *21:6 23.6214 
2 *21:6 *201:A 23.8493 
3 *21:6 *21:19 21.2143 
4 *21:19 *209:S 38 
5 *21:19 *207:B 42.5364 
*END

*D_NET *22 0.000457033
*CONN
*I *203:B1 I *D sky130_fd_sc_hd__o211a_1
*I *201:Y O *D sky130_fd_sc_hd__inv_2
*CAP
1 *203:B1 0
2 *201:Y 0.000193548
3 *22:10 0.000193548
4 *22:10 *200:B 0
5 *22:10 *87:14 0
6 *22:10 *88:40 0
7 *21:6 *22:10 1.32314e-05
8 *21:19 *22:10 5.67058e-05
*RES
1 *201:Y *22:10 40.8793 
2 *22:10 *203:B1 38 
*END

*D_NET *23 9.87992e-05
*CONN
*I *203:C1 I *D sky130_fd_sc_hd__o211a_1
*I *202:X O *D sky130_fd_sc_hd__a21o_1
*CAP
1 *203:C1 2.10467e-05
2 *202:X 2.10467e-05
3 *203:C1 *203:A1 5.67058e-05
*RES
1 *202:X *203:C1 46.6214 
*END

*D_NET *24 0.00574512
*CONN
*I *243:A I *D sky130_fd_sc_hd__and3_1
*I *218:A I *D sky130_fd_sc_hd__or4bb_1
*I *244:A1 I *D sky130_fd_sc_hd__a21o_1
*I *213:A I *D sky130_fd_sc_hd__nor2_1
*I *212:A I *D sky130_fd_sc_hd__and2_1
*I *204:X O *D sky130_fd_sc_hd__and2_1
*CAP
1 *243:A 0.000124734
2 *218:A 0
3 *244:A1 0
4 *213:A 0.000110042
5 *212:A 0
6 *204:X 0.000534754
7 *24:50 0.000389703
8 *24:38 0.000436995
9 *24:34 0.000446878
10 *24:18 0.000446767
11 *24:12 0.00114633
12 *213:A *213:B 0.000131713
13 *213:A *236:A1 5.90675e-06
14 *213:A *30:6 4.95081e-05
15 *213:A *31:10 0.000102389
16 *213:A *32:6 0.000141954
17 *213:A *32:19 1.24376e-05
18 *243:A *35:10 0.000126343
19 *243:A *39:14 0
20 *243:A *84:81 0
21 *24:12 *217:B 0.000141052
22 *24:12 *227:A 5.80768e-05
23 *24:12 *227:B 7.43025e-06
24 *24:12 *36:10 5.14746e-06
25 *24:12 *45:14 3.22879e-05
26 *24:12 *46:6 5.50049e-05
27 *24:12 *47:8 0.000174822
28 *24:18 *26:36 0.000160692
29 *24:18 *31:10 0.000100069
30 *24:34 *26:36 0.000188672
31 *24:34 *35:10 9.03784e-05
32 *24:38 *218:B 1.21972e-05
33 *24:38 *38:8 9.58714e-05
34 *24:50 *218:B 6.17437e-06
35 *24:50 *243:C 8.29713e-05
36 *24:50 *26:36 0.000112419
37 *24:50 *36:10 2.24366e-06
38 *24:50 *36:21 1.63467e-05
39 *24:50 *38:8 1.56762e-05
40 *24:50 *43:15 9.8203e-05
41 *24:50 *84:81 8.29264e-05
*RES
1 *204:X *24:12 46.41 
2 *24:12 *24:18 21.525 
3 *24:18 *212:A 23 
4 *24:18 *213:A 26.9771 
5 *24:12 *24:34 6.48357 
6 *24:34 *24:38 16.0979 
7 *24:38 *24:50 36.38 
8 *24:50 *244:A1 23 
9 *24:38 *218:A 23 
10 *24:34 *243:A 40.2579 
*END

*D_NET *25 0.000736007
*CONN
*I *219:B2 I *D sky130_fd_sc_hd__a32o_1
*I *205:Y O *D sky130_fd_sc_hd__nand2_1
*CAP
1 *219:B2 0
2 *205:Y 0.00035186
3 *25:10 0.00035186
4 *25:10 *45:10 0
5 *25:10 *86:33 0
6 *25:10 *87:56 3.22879e-05
*RES
1 *205:Y *25:10 42.9093 
2 *25:10 *219:B2 38 
*END

*D_NET *26 0.00421991
*CONN
*I *210:A I *D sky130_fd_sc_hd__nor2_1
*I *211:A I *D sky130_fd_sc_hd__xor2_1
*I *218:D_N I *D sky130_fd_sc_hd__or4bb_1
*I *219:A3 I *D sky130_fd_sc_hd__a32o_1
*I *206:Y O *D sky130_fd_sc_hd__nand2_1
*CAP
1 *210:A 0
2 *211:A 8.44049e-05
3 *218:D_N 0
4 *219:A3 0
5 *206:Y 0.000432354
6 *26:36 0.000803961
7 *26:15 0.000820539
8 *26:8 0.000533337
9 *211:A *210:B 0.000235062
10 *26:8 *36:35 1.03631e-05
11 *26:8 *84:64 0.000312541
12 *26:8 *84:81 8.7283e-06
13 *26:15 *218:C_N 5.56356e-05
14 *26:15 *38:8 0.000142636
15 *26:15 *84:81 4.5051e-05
16 *26:36 *210:B 1.65456e-05
17 *26:36 *30:6 5.73288e-05
18 *26:36 *35:10 5.87078e-05
19 *26:36 *38:8 0.000140931
20 *26:36 *45:10 0
21 *24:18 *26:36 0.000160692
22 *24:34 *26:36 0.000188672
23 *24:50 *26:36 0.000112419
*RES
1 *206:Y *26:8 30.0636 
2 *26:8 *219:A3 23 
3 *26:8 *26:15 2.52714 
4 *26:15 *218:D_N 23 
5 *26:15 *26:36 44.9971 
6 *26:36 *211:A 25.5271 
7 *26:36 *210:A 23 
*END

*D_NET *27 0.00139733
*CONN
*I *227:A I *D sky130_fd_sc_hd__nor2_1
*I *228:A I *D sky130_fd_sc_hd__xnor2_1
*I *207:Y O *D sky130_fd_sc_hd__nand2_1
*CAP
1 *227:A 5.53709e-05
2 *228:A 0
3 *207:Y 0.000371252
4 *27:12 5.53709e-05
5 *27:10 0.000371252
6 *227:A *227:B 0.000233367
7 *227:A *47:8 5.79559e-05
8 *27:10 *217:A 0
9 *27:10 *45:10 1.83667e-05
10 *27:10 *50:14 0.000176314
11 *24:12 *227:A 5.80768e-05
*RES
1 *207:Y *27:10 43.7379 
2 *27:10 *27:12 15 
3 *27:12 *228:A 23 
4 *27:12 *227:A 25.5271 
*END

*D_NET *28 0.00054602
*CONN
*I *209:A0 I *D sky130_fd_sc_hd__mux2_1
*I *208:Y O *D sky130_fd_sc_hd__nand2_1
*CAP
1 *209:A0 3.74901e-05
2 *208:Y 8.11403e-05
3 *28:8 0.00011863
4 *209:A0 *88:47 2.93845e-05
5 *209:A0 *88:58 2.4754e-05
6 *209:A0 *91:10 3.3577e-05
7 *28:8 *91:10 4.08537e-05
8 *207:B *28:8 3.92407e-05
9 *21:19 *28:8 0.000140949
*RES
1 *208:Y *28:8 40.2579 
2 *28:8 *209:A0 39.0979 
*END

*D_NET *29 0.000917415
*CONN
*I *210:B I *D sky130_fd_sc_hd__nor2_1
*I *211:B I *D sky130_fd_sc_hd__xor2_1
*I *209:X O *D sky130_fd_sc_hd__mux2_1
*CAP
1 *210:B 0.000139533
2 *211:B 0
3 *209:X 8.45803e-05
4 *29:8 0.000224113
5 *210:B *30:6 3.22467e-05
6 *210:B *31:10 0.000185333
7 *211:A *210:B 0.000235062
8 *26:36 *210:B 1.65456e-05
*RES
1 *209:X *29:8 24.595 
2 *29:8 *211:B 23 
3 *29:8 *210:B 27.4536 
*END

*D_NET *30 0.00175413
*CONN
*I *261:A I *D sky130_fd_sc_hd__or3_1
*I *236:A1 I *D sky130_fd_sc_hd__o21ai_1
*I *210:Y O *D sky130_fd_sc_hd__nor2_1
*CAP
1 *261:A 0.00012053
2 *236:A1 2.14194e-05
3 *210:Y 0.000284089
4 *30:6 0.000426039
5 *236:A1 *261:C 0
6 *261:A *261:B 3.53115e-05
7 *261:A *261:C 9.0308e-05
8 *261:A *32:19 1.76557e-05
9 *261:A *55:14 0.000191341
10 *30:6 *213:B 0.000145236
11 *30:6 *31:10 0.000243784
12 *30:6 *32:19 3.34247e-05
13 *210:B *30:6 3.22467e-05
14 *213:A *236:A1 5.90675e-06
15 *213:A *30:6 4.95081e-05
16 *26:36 *30:6 5.73288e-05
*RES
1 *210:Y *30:6 29.815 
2 *30:6 *236:A1 23.4971 
3 *30:6 *261:A 26.9771 
*END

*D_NET *31 0.00130407
*CONN
*I *213:B I *D sky130_fd_sc_hd__nor2_1
*I *212:B I *D sky130_fd_sc_hd__and2_1
*I *211:X O *D sky130_fd_sc_hd__xor2_1
*CAP
1 *213:B 1.76737e-05
2 *212:B 0
3 *211:X 0.0001801
4 *31:10 0.000197774
5 *210:B *31:10 0.000185333
6 *213:A *213:B 0.000131713
7 *213:A *31:10 0.000102389
8 *24:18 *31:10 0.000100069
9 *30:6 *213:B 0.000145236
10 *30:6 *31:10 0.000243784
*RES
1 *211:X *31:10 28.4271 
2 *31:10 *212:B 23 
3 *31:10 *213:B 24.5743 
*END

*D_NET *32 0.00123891
*CONN
*I *261:B I *D sky130_fd_sc_hd__or3_1
*I *236:A2 I *D sky130_fd_sc_hd__o21ai_1
*I *214:A I *D sky130_fd_sc_hd__nor2_1
*I *212:X O *D sky130_fd_sc_hd__and2_1
*CAP
1 *261:B 0.000122547
2 *236:A2 0
3 *214:A 0
4 *212:X 7.65879e-05
5 *32:19 0.000193487
6 *32:12 0.000113354
7 *32:6 0.000260883
8 *261:B *261:C 0.000143655
9 *32:12 *33:8 8.76088e-05
10 *213:A *32:6 0.000141954
11 *213:A *32:19 1.24376e-05
12 *261:A *261:B 3.53115e-05
13 *261:A *32:19 1.76557e-05
14 *30:6 *32:19 3.34247e-05
*RES
1 *212:X *32:6 24.5743 
2 *32:6 *32:12 32.61 
3 *32:12 *214:A 23 
4 *32:6 *32:19 1.57429 
5 *32:19 *236:A2 23 
6 *32:19 *261:B 26.0243 
*END

*D_NET *33 0.000265421
*CONN
*I *214:B I *D sky130_fd_sc_hd__nor2_1
*I *213:Y O *D sky130_fd_sc_hd__nor2_1
*CAP
1 *214:B 0
2 *213:Y 8.8906e-05
3 *33:8 8.8906e-05
4 *32:12 *33:8 8.76088e-05
*RES
1 *213:Y *33:8 40.2579 
2 *33:8 *214:B 38 
*END

*D_NET *34 0.00389551
*CONN
*I *221:A I *D sky130_fd_sc_hd__or2_1
*I *222:A I *D sky130_fd_sc_hd__xor2_1
*I *254:C I *D sky130_fd_sc_hd__and3_1
*I *215:Y O *D sky130_fd_sc_hd__nand2_1
*CAP
1 *221:A 0
2 *222:A 0.000139461
3 *254:C 0
4 *215:Y 0.000374614
5 *34:21 0.000924716
6 *34:6 0.00115987
7 *222:A *220:A 1.62015e-05
8 *222:A *250:A1 1.02387e-05
9 *222:A *37:19 3.28876e-05
10 *222:A *38:8 9.58714e-05
11 *222:A *39:6 5.50106e-05
12 *222:A *39:14 0.000161121
13 *34:6 *254:A 5.50049e-05
14 *34:6 *254:B 2.26371e-05
15 *34:6 *42:10 6.30615e-05
16 *34:6 *89:49 5.37348e-06
17 *34:21 *245:A_N 5.56279e-05
18 *34:21 *245:B 1.88487e-05
19 *34:21 *249:C 0
20 *34:21 *250:A1 3.07161e-05
21 *34:21 *40:12 0.000171906
22 *34:21 *61:21 0.000230761
23 *34:21 *71:8 4.2061e-05
24 *34:21 *73:10 0.000229526
*RES
1 *215:Y *34:6 28.4686 
2 *34:6 *254:C 23 
3 *34:6 *34:21 29.3757 
4 *34:21 *222:A 41.7079 
5 *34:21 *221:A 38 
*END

*D_NET *35 0.00091721
*CONN
*I *218:B I *D sky130_fd_sc_hd__or4bb_1
*I *216:Y O *D sky130_fd_sc_hd__nand2_1
*CAP
1 *218:B 5.28729e-05
2 *216:Y 0.000234368
3 *35:10 0.000287241
4 *35:10 *84:81 4.8927e-05
5 *243:A *35:10 0.000126343
6 *24:34 *35:10 9.03784e-05
7 *24:38 *218:B 1.21972e-05
8 *24:50 *218:B 6.17437e-06
9 *26:36 *35:10 5.87078e-05
*RES
1 *216:Y *35:10 42.06 
2 *35:10 *218:B 38.6214 
*END

*D_NET *36 0.00315795
*CONN
*I *243:B I *D sky130_fd_sc_hd__and3_1
*I *244:A2 I *D sky130_fd_sc_hd__a21o_1
*I *219:B1 I *D sky130_fd_sc_hd__a32o_1
*I *218:C_N I *D sky130_fd_sc_hd__or4bb_1
*I *217:X O *D sky130_fd_sc_hd__and2_1
*CAP
1 *243:B 0.000283501
2 *244:A2 0
3 *219:B1 0
4 *218:C_N 3.41659e-05
5 *217:X 0.000308024
6 *36:35 0.000220822
7 *36:25 0.000258946
8 *36:21 0.000490003
9 *36:10 0.000510567
10 *243:B *243:C 9.87385e-06
11 *243:B *254:A 0
12 *243:B *43:15 9.87985e-06
13 *243:B *61:10 0.000100061
14 *243:B *62:10 2.46906e-05
15 *243:B *84:81 1.69195e-05
16 *243:B *90:60 0
17 *36:10 *227:B 5.73309e-05
18 *36:10 *45:10 0.000181422
19 *36:10 *45:14 1.41077e-05
20 *36:21 *219:A2 0
21 *36:21 *45:10 7.20415e-05
22 *36:21 *84:81 5.27121e-05
23 *36:25 *43:15 8.52481e-05
24 *36:35 *219:A2 7.00173e-05
25 *36:35 *42:10 4.21594e-06
26 *36:35 *43:15 0.000182832
27 *36:35 *84:64 2.39868e-05
28 *36:35 *86:33 0
29 *36:35 *90:58 5.12254e-05
30 *36:35 *90:60 5.62433e-06
31 *19:10 *36:35 0
32 *24:12 *36:10 5.14746e-06
33 *24:50 *36:10 2.24366e-06
34 *24:50 *36:21 1.63467e-05
35 *26:8 *36:35 1.03631e-05
36 *26:15 *218:C_N 5.56356e-05
*RES
1 *217:X *36:10 44.2971 
2 *36:10 *218:C_N 38.6214 
3 *36:10 *36:21 2.96214 
4 *36:21 *36:25 16.0979 
5 *36:25 *36:35 34.9404 
6 *36:35 *219:B1 23 
7 *36:25 *244:A2 23 
8 *36:21 *243:B 42.205 
*END

*D_NET *37 0.00235494
*CONN
*I *250:A1 I *D sky130_fd_sc_hd__a21oi_1
*I *249:A I *D sky130_fd_sc_hd__and3_1
*I *220:A I *D sky130_fd_sc_hd__nand2_1
*I *218:X O *D sky130_fd_sc_hd__or4bb_1
*CAP
1 *250:A1 0.000115371
2 *249:A 0
3 *220:A 5.08412e-05
4 *218:X 0.000403775
5 *37:19 0.000188716
6 *37:8 0.000527961
7 *250:A1 *249:C 0.000277695
8 *250:A1 *40:12 8.51329e-05
9 *250:A1 *73:10 2.93747e-05
10 *37:8 *38:8 0.000574583
11 *37:19 *249:C 1.14452e-05
12 *37:19 *67:16 0
13 *222:A *220:A 1.62015e-05
14 *222:A *250:A1 1.02387e-05
15 *222:A *37:19 3.28876e-05
16 *34:21 *250:A1 3.07161e-05
*RES
1 *218:X *37:8 44.3386 
2 *37:8 *220:A 38.8493 
3 *37:8 *37:19 1.55357 
4 *37:19 *249:A 38 
5 *37:19 *250:A1 42.2879 
*END

*D_NET *38 0.00217172
*CONN
*I *220:B I *D sky130_fd_sc_hd__nand2_1
*I *219:X O *D sky130_fd_sc_hd__a32o_1
*CAP
1 *220:B 0
2 *219:X 0.000423423
3 *38:8 0.000423423
4 *38:8 *39:6 9.90162e-05
5 *38:8 *41:10 1.76557e-05
6 *38:8 *84:81 0.000142636
7 *222:A *38:8 9.58714e-05
8 *24:38 *38:8 9.58714e-05
9 *24:50 *38:8 1.56762e-05
10 *26:15 *38:8 0.000142636
11 *26:36 *38:8 0.000140931
12 *37:8 *38:8 0.000574583
*RES
1 *219:X *38:8 35.0764 
2 *38:8 *220:B 23 
*END

*D_NET *39 0.000938213
*CONN
*I *222:B I *D sky130_fd_sc_hd__xor2_1
*I *221:B I *D sky130_fd_sc_hd__or2_1
*I *220:Y O *D sky130_fd_sc_hd__nand2_1
*CAP
1 *222:B 0
2 *221:B 0
3 *220:Y 6.94511e-05
4 *39:14 0.000191992
5 *39:6 0.000261443
6 *39:6 *41:10 0.00010018
7 *222:A *39:6 5.50106e-05
8 *222:A *39:14 0.000161121
9 *243:A *39:14 0
10 *38:8 *39:6 9.90162e-05
*RES
1 *220:Y *39:6 25.5271 
2 *39:6 *39:14 33.2314 
3 *39:14 *221:B 23 
4 *39:6 *222:B 23 
*END

*D_NET *40 0.000742051
*CONN
*I *249:B I *D sky130_fd_sc_hd__and3_1
*I *250:A2 I *D sky130_fd_sc_hd__a21oi_1
*I *221:X O *D sky130_fd_sc_hd__or2_1
*CAP
1 *249:B 0.000130417
2 *250:A2 0
3 *221:X 0
4 *40:12 0.000105118
5 *40:4 0.000235535
6 *249:B *249:C 1.39431e-05
7 *250:A1 *40:12 8.51329e-05
8 *34:21 *40:12 0.000171906
*RES
1 *221:X *40:4 23 
2 *40:4 *40:12 32.8793 
3 *40:12 *250:A2 23 
4 *40:4 *249:B 24.5743 
*END

*D_NET *41 0.00130603
*CONN
*I *234:B1 I *D sky130_fd_sc_hd__o21a_1
*I *233:A I *D sky130_fd_sc_hd__nor3_1
*I *222:X O *D sky130_fd_sc_hd__xor2_1
*CAP
1 *234:B1 0
2 *233:A 0.000206847
3 *222:X 0.000322391
4 *41:10 0.000529238
5 *233:A *233:B 1.32939e-05
6 *233:A *233:C 5.37348e-06
7 *233:A *237:A 5.90675e-06
8 *233:A *51:14 7.28526e-05
9 *233:A *52:8 3.22879e-05
10 *233:A *52:14 0
11 *41:10 *52:14 0
12 *41:10 *70:8 0
13 *38:8 *41:10 1.76557e-05
14 *39:6 *41:10 0.00010018
*RES
1 *222:X *41:10 44.09 
2 *41:10 *233:A 41.9771 
3 *41:10 *234:B1 38 
*END

*D_NET *42 0.00154
*CONN
*I *226:A2 I *D sky130_fd_sc_hd__a211o_1
*I *223:Y O *D sky130_fd_sc_hd__nand3b_1
*CAP
1 *226:A2 0
2 *223:Y 0.000426336
3 *42:10 0.000426336
4 *42:10 *223:B 0.000213614
5 *42:10 *254:A 0
6 *42:10 *254:B 0.000270682
7 *42:10 *86:33 0
8 *42:10 *89:49 0.000124306
9 *42:10 *90:60 0
10 *19:10 *42:10 1.14452e-05
11 *34:6 *42:10 6.30615e-05
12 *36:35 *42:10 4.21594e-06
*RES
1 *223:Y *42:10 47.425 
2 *42:10 *226:A2 38 
*END

*D_NET *43 0.00184986
*CONN
*I *243:C I *D sky130_fd_sc_hd__and3_1
*I *244:B1 I *D sky130_fd_sc_hd__a21o_1
*I *226:B1 I *D sky130_fd_sc_hd__a211o_1
*I *224:X O *D sky130_fd_sc_hd__and4_1
*CAP
1 *243:C 8.87457e-05
2 *244:B1 2.52923e-05
3 *226:B1 1.74641e-05
4 *224:X 4.54602e-05
5 *43:15 0.000334304
6 *43:6 0.000283191
7 *226:B1 *44:14 1.37232e-05
8 *243:C *84:81 0.000176021
9 *43:6 *44:14 5.67058e-05
10 *43:6 *90:58 1.76557e-05
11 *43:15 *45:10 0.000223698
12 *43:15 *90:58 9.85891e-05
13 *243:B *243:C 9.87385e-06
14 *243:B *43:15 9.87985e-06
15 *24:50 *243:C 8.29713e-05
16 *24:50 *43:15 9.8203e-05
17 *36:25 *43:15 8.52481e-05
18 *36:35 *43:15 0.000182832
*RES
1 *224:X *43:6 24.0979 
2 *43:6 *226:B1 23.4971 
3 *43:6 *43:15 6.33857 
4 *43:15 *244:B1 23.4971 
5 *43:15 *243:C 25.3925 
*END

*D_NET *44 0.000778463
*CONN
*I *226:C1 I *D sky130_fd_sc_hd__a211o_1
*I *225:X O *D sky130_fd_sc_hd__and2b_1
*CAP
1 *226:C1 0
2 *225:X 0.000276324
3 *44:14 0.000276324
4 *44:14 *224:D 1.14154e-05
5 *44:14 *90:23 3.73987e-05
6 *44:14 *90:47 4.39488e-05
7 *44:14 *90:58 6.26235e-05
8 *226:B1 *44:14 1.37232e-05
9 *43:6 *44:14 5.67058e-05
*RES
1 *225:X *44:14 28.2407 
2 *44:14 *226:C1 23 
*END

*D_NET *45 0.00255946
*CONN
*I *227:B I *D sky130_fd_sc_hd__nor2_1
*I *228:B I *D sky130_fd_sc_hd__xnor2_1
*I *226:X O *D sky130_fd_sc_hd__a211o_1
*CAP
1 *227:B 0.000219453
2 *228:B 0
3 *226:X 0.000561863
4 *45:14 0.000236461
5 *45:10 0.00057887
6 *227:B *217:B 0
7 *227:B *47:8 7.06552e-05
8 *45:10 *217:A 0
9 *45:10 *219:A2 5.21024e-05
10 *227:A *227:B 0.000233367
11 *24:12 *227:B 7.43025e-06
12 *24:12 *45:14 3.22879e-05
13 *25:10 *45:10 0
14 *26:36 *45:10 0
15 *27:10 *45:10 1.83667e-05
16 *36:10 *227:B 5.73309e-05
17 *36:10 *45:10 0.000181422
18 *36:10 *45:14 1.41077e-05
19 *36:21 *45:10 7.20415e-05
20 *43:15 *45:10 0.000223698
*RES
1 *226:X *45:10 48.4193 
2 *45:10 *45:14 15.6214 
3 *45:14 *228:B 23 
4 *45:14 *227:B 28.4479 
*END

*D_NET *46 0.00244881
*CONN
*I *233:B I *D sky130_fd_sc_hd__nor3_1
*I *234:A1 I *D sky130_fd_sc_hd__o21a_1
*I *227:Y O *D sky130_fd_sc_hd__nor2_1
*CAP
1 *233:B 0.000107812
2 *234:A1 0
3 *227:Y 0.000546604
4 *46:12 0.000184302
5 *46:6 0.000838718
6 *233:B *233:C 8.6949e-05
7 *233:B *51:8 5.50106e-05
8 *233:B *52:8 0
9 *46:6 *232:A 2.32101e-05
10 *46:6 *47:8 0.00011906
11 *46:6 *51:8 0.000193575
12 *46:12 *50:27 0
13 *46:12 *51:14 0.000225275
14 *233:A *233:B 1.32939e-05
15 *24:12 *46:6 5.50049e-05
*RES
1 *227:Y *46:6 31.2443 
2 *46:6 *46:12 33.6664 
3 *46:12 *234:A1 23 
4 *46:6 *233:B 25.5479 
*END

*D_NET *47 0.00129031
*CONN
*I *232:A I *D sky130_fd_sc_hd__nor2_1
*I *235:A I *D sky130_fd_sc_hd__xor2_1
*I *228:Y O *D sky130_fd_sc_hd__xnor2_1
*CAP
1 *232:A 4.86041e-05
2 *235:A 0
3 *228:Y 0.0001771
4 *47:14 0.000169414
5 *47:8 0.000395118
6 *232:A *51:8 5.90675e-06
7 *47:14 *50:27 4.84619e-05
8 *227:A *47:8 5.79559e-05
9 *227:B *47:8 7.06552e-05
10 *24:12 *47:8 0.000174822
11 *46:6 *232:A 2.32101e-05
12 *46:6 *47:8 0.00011906
*RES
1 *228:Y *47:8 27.93 
2 *47:8 *47:14 32.9621 
3 *47:14 *235:A 23 
4 *47:8 *232:A 24.1186 
*END

*D_NET *48 0.000548723
*CONN
*I *231:A3 I *D sky130_fd_sc_hd__a31o_1
*I *229:X O *D sky130_fd_sc_hd__or2_1
*CAP
1 *231:A3 2.01797e-05
2 *229:X 8.79288e-05
3 *48:8 0.000108108
4 *231:A3 *231:A2 9.84794e-05
5 *231:A3 *49:10 9.84794e-05
6 *48:8 *229:B 0.000135547
7 *48:8 *87:10 0
8 *48:8 *87:12 0
*RES
1 *229:X *48:8 39.9057 
2 *48:8 *231:A3 39.0979 
*END

*D_NET *49 0.000736209
*CONN
*I *231:B1 I *D sky130_fd_sc_hd__a31o_1
*I *230:Y O *D sky130_fd_sc_hd__a22oi_1
*CAP
1 *231:B1 0
2 *230:Y 0.000216702
3 *49:10 0.000216702
4 *49:10 *204:B 1.5769e-05
5 *49:10 *230:A2 1.45133e-05
6 *49:10 *230:B1 1.28655e-05
7 *49:10 *231:A2 9.21709e-05
8 *49:10 *85:52 1.39965e-05
9 *49:10 *86:44 5.50106e-05
10 *231:A3 *49:10 9.84794e-05
*RES
1 *230:Y *49:10 27.5986 
2 *49:10 *231:B1 23 
*END

*D_NET *50 0.00321343
*CONN
*I *232:B I *D sky130_fd_sc_hd__nor2_1
*I *235:B I *D sky130_fd_sc_hd__xor2_1
*I *231:X O *D sky130_fd_sc_hd__a31o_1
*CAP
1 *232:B 0
2 *235:B 0
3 *231:X 0.000410156
4 *50:27 0.000301605
5 *50:14 0.000814431
6 *50:10 0.000922982
7 *50:10 *217:A 4.3407e-05
8 *50:10 *217:B 0.000256544
9 *50:10 *231:A2 9.5877e-05
10 *50:10 *86:44 8.6949e-05
11 *50:10 *88:88 0
12 *207:B *50:14 5.67058e-05
13 *27:10 *50:14 0.000176314
14 *46:12 *50:27 0
15 *47:14 *50:27 4.84619e-05
*RES
1 *231:X *50:10 44.815 
2 *50:10 *50:14 25.15 
3 *50:14 *235:B 23 
4 *50:14 *50:27 35.0129 
5 *50:27 *232:B 23 
*END

*D_NET *51 0.00134547
*CONN
*I *233:C I *D sky130_fd_sc_hd__nor3_1
*I *234:A2 I *D sky130_fd_sc_hd__o21a_1
*I *232:Y O *D sky130_fd_sc_hd__nor2_1
*CAP
1 *233:C 5.18439e-05
2 *234:A2 0
3 *232:Y 0.000197049
4 *51:14 9.12468e-05
5 *51:8 0.000340139
6 *233:C *52:8 2.02517e-05
7 *51:14 *237:B 0
8 *51:14 *52:14 0
9 *232:A *51:8 5.90675e-06
10 *233:A *233:C 5.37348e-06
11 *233:A *51:14 7.28526e-05
12 *233:B *233:C 8.6949e-05
13 *233:B *51:8 5.50106e-05
14 *46:6 *51:8 0.000193575
15 *46:12 *51:14 0.000225275
*RES
1 *232:Y *51:8 27.93 
2 *51:8 *51:14 32.9621 
3 *51:14 *234:A2 23 
4 *51:8 *233:C 24.595 
*END

*D_NET *52 0.0012101
*CONN
*I *237:A I *D sky130_fd_sc_hd__or3_1
*I *238:A1 I *D sky130_fd_sc_hd__o21ai_1
*I *252:A1 I *D sky130_fd_sc_hd__o21bai_1
*I *233:Y O *D sky130_fd_sc_hd__nor3_1
*CAP
1 *237:A 0.000173339
2 *238:A1 0
3 *252:A1 0
4 *233:Y 0.000119553
5 *52:14 0.000144267
6 *52:8 0.00043716
7 *237:A *237:B 8.06804e-06
8 *237:A *237:C 6.66152e-05
9 *237:A *57:10 3.76702e-05
10 *52:8 *237:C 0
11 *52:14 *237:B 1.01436e-05
12 *52:14 *252:A2 2.84912e-05
13 *52:14 *53:10 0.000126343
14 *233:A *237:A 5.90675e-06
15 *233:A *52:8 3.22879e-05
16 *233:A *52:14 0
17 *233:B *52:8 0
18 *233:C *52:8 2.02517e-05
19 *41:10 *52:14 0
20 *51:14 *52:14 0
*RES
1 *233:Y *52:8 25.7757 
2 *52:8 *52:14 32.61 
3 *52:14 *252:A1 23 
4 *52:8 *238:A1 23 
5 *52:8 *237:A 26.5214 
*END

*D_NET *53 0.00166582
*CONN
*I *252:B1_N I *D sky130_fd_sc_hd__o21bai_1
*I *238:A2 I *D sky130_fd_sc_hd__o21ai_1
*I *237:B I *D sky130_fd_sc_hd__or3_1
*I *234:X O *D sky130_fd_sc_hd__o21a_1
*CAP
1 *252:B1_N 0.000204973
2 *238:A2 0
3 *237:B 0.000160103
4 *234:X 0.000173819
5 *53:10 0.000216936
6 *53:6 0.000435625
7 *237:B *252:A2 2.77955e-05
8 *237:B *55:23 6.48142e-05
9 *237:B *57:10 9.84851e-05
10 *53:10 *252:A2 0.000138718
11 *237:A *237:B 8.06804e-06
12 *51:14 *237:B 0
13 *52:14 *237:B 1.01436e-05
14 *52:14 *53:10 0.000126343
*RES
1 *234:X *53:6 25.0507 
2 *53:6 *53:10 16.9057 
3 *53:10 *237:B 40.7757 
4 *53:10 *238:A2 38 
5 *53:6 *252:B1_N 25.9 
*END

*D_NET *54 0.00104147
*CONN
*I *261:C I *D sky130_fd_sc_hd__or3_1
*I *236:B1 I *D sky130_fd_sc_hd__o21ai_1
*I *235:X O *D sky130_fd_sc_hd__xor2_1
*CAP
1 *261:C 4.77439e-05
2 *236:B1 0
3 *235:X 0.000356008
4 *54:12 4.77439e-05
5 *54:10 0.000356008
6 *236:A1 *261:C 0
7 *261:A *261:C 9.0308e-05
8 *261:B *261:C 0.000143655
*RES
1 *235:X *54:10 43.8414 
2 *54:10 *54:12 15 
3 *54:12 *236:B1 23 
4 *54:12 *261:C 25.0714 
*END

*D_NET *55 0.00245144
*CONN
*I *237:C I *D sky130_fd_sc_hd__or3_1
*I *238:B1 I *D sky130_fd_sc_hd__o21ai_1
*I *252:A2 I *D sky130_fd_sc_hd__o21bai_1
*I *262:A I *D sky130_fd_sc_hd__and2_1
*I *236:Y O *D sky130_fd_sc_hd__o21ai_1
*CAP
1 *237:C 3.25881e-05
2 *238:B1 0
3 *252:A2 0.000140257
4 *262:A 0
5 *236:Y 0.000426468
6 *55:36 8.24203e-05
7 *55:23 0.000338952
8 *55:14 0.000575332
9 *237:C *57:10 3.22879e-05
10 *55:14 *76:10 0.000299279
11 *55:23 *76:10 6.07611e-06
12 *237:A *237:C 6.66152e-05
13 *237:B *252:A2 2.77955e-05
14 *237:B *55:23 6.48142e-05
15 *261:A *55:14 0.000191341
16 *52:8 *237:C 0
17 *52:14 *252:A2 2.84912e-05