*SPEF "ieee 1481-1999"
*DESIGN "mult8_2bits_2op_e2496"
*DATE "12:35:19 Wednesday September 17, 2025"
*VENDOR "The OpenROAD Project"
*PROGRAM "OpenROAD"
*VERSION "edf00dff99f6c40d67a30c0e22a8191c5d2ed9d6"
*DESIGN_FLOW "NAME_SCOPE LOCAL" "PIN_CAP NONE"
*DIVIDER /
*DELIMITER :
*BUS_DELIMITER []
*T_UNIT 1 NS
*C_UNIT 1 PF
*R_UNIT 1 OHM
*L_UNIT 1 HENRY

*NAME_MAP
*1 A[0]
*2 A[1]
*3 A[2]
*4 A[3]
*5 A[4]
*6 A[5]
*7 A[6]
*8 A[7]
*9 B[0]
*10 B[1]
*11 B[2]
*12 B[3]
*13 B[4]
*14 B[5]
*15 B[6]
*16 B[7]
*17 P[0]
*18 P[10]
*19 P[11]
*20 P[12]
*21 P[13]
*22 P[14]
*23 P[15]
*24 P[1]
*25 P[2]
*26 P[3]
*27 P[4]
*28 P[5]
*29 P[6]
*30 P[7]
*31 P[8]
*32 P[9]
*35 _000_
*36 _001_
*37 _002_
*38 _003_
*39 _004_
*40 _005_
*41 _006_
*42 _007_
*43 _008_
*44 _009_
*45 _010_
*46 _011_
*47 _012_
*48 _013_
*49 _014_
*50 _015_
*51 _016_
*52 _017_
*53 _018_
*54 _019_
*55 _020_
*56 _021_
*57 _022_
*58 _023_
*59 _024_
*60 _025_
*61 _026_
*62 _027_
*63 _028_
*64 _029_
*65 _030_
*66 _031_
*67 _032_
*68 _033_
*69 _034_
*70 _035_
*71 _036_
*72 _037_
*73 _038_
*74 _039_
*75 _040_
*76 _041_
*77 _042_
*78 _043_
*79 _044_
*80 _045_
*81 _046_
*82 _047_
*83 _048_
*84 _049_
*85 _050_
*86 _051_
*87 _052_
*88 _053_
*89 _054_
*90 _055_
*91 _056_
*92 _057_
*93 _058_
*94 _059_
*95 _060_
*96 _061_
*97 _062_
*98 _063_
*99 _064_
*100 _065_
*101 _066_
*102 _067_
*103 _068_
*104 _069_
*105 _070_
*106 _071_
*107 _072_
*108 _073_
*109 _074_
*110 _075_
*111 _076_
*112 _077_
*113 _078_
*114 _079_
*115 _080_
*116 _081_
*117 _082_
*118 _083_
*119 _084_
*120 _085_
*121 _086_
*122 _087_
*123 _088_
*124 _089_
*125 _090_
*126 _091_
*127 _092_
*128 _093_
*129 _094_
*130 _095_
*131 _096_
*132 _097_
*133 _098_
*134 _099_
*135 _100_
*136 _101_
*137 _102_
*138 _103_
*139 _104_
*140 _105_
*141 _106_
*142 _107_
*143 _108_
*144 _109_
*145 _110_
*146 _111_
*147 _112_
*148 _113_
*149 _114_
*150 _115_
*151 _116_
*152 _117_
*153 _118_
*154 _119_
*155 _120_
*156 _121_
*157 _122_
*158 _123_
*159 _124_
*160 _125_
*161 _126_
*162 _127_
*163 _128_
*164 _129_
*165 _130_
*166 _131_
*167 _132_
*168 _133_
*169 _134_
*170 _135_
*171 _136_
*172 _137_
*173 _138_
*174 _139_
*175 _140_
*176 _141_
*177 _142_
*178 _143_
*179 _144_
*180 _145_
*181 _146_
*182 _147_
*183 _148_
*184 _149_
*185 _150_
*186 _151_
*187 _152_
*188 _153_
*189 _154_
*190 _155_
*191 _156_
*192 _157_
*193 _158_
*194 _159_
*195 _160_
*196 _161_
*197 _162_
*198 _163_
*199 _164_
*200 _165_
*201 _166_
*202 _167_
*203 _168_
*204 _169_
*205 _170_
*206 _171_
*207 _172_
*208 _173_
*209 _174_
*210 _175_
*211 _176_
*212 _177_
*213 _178_
*214 _179_
*215 _180_
*216 _181_
*217 _182_
*218 _183_
*219 _184_
*220 _185_
*221 _186_
*222 _187_
*223 _188_
*224 _189_
*225 _190_
*226 _191_
*227 _192_
*228 _193_
*229 _194_
*230 _195_
*231 _196_
*232 _197_
*233 _198_
*234 _199_
*235 _200_
*236 _201_
*237 _202_
*238 _203_
*239 _204_
*240 _205_
*241 _206_
*242 _207_
*243 _208_
*244 _209_
*245 _210_
*246 _211_
*247 _212_
*248 _213_
*249 _214_
*250 _215_
*251 _216_
*252 _217_
*253 _218_
*254 _219_
*255 _220_
*256 _221_
*257 _222_
*258 _223_
*259 _224_
*260 _225_
*261 _226_
*262 _227_
*263 _228_
*264 _229_
*265 _230_
*266 _231_
*267 _232_
*268 _233_
*269 _234_
*270 _235_
*271 _236_
*272 _237_
*273 _238_
*274 _239_
*275 _240_
*276 _241_
*277 _242_
*278 _243_
*279 _244_
*280 _245_
*281 _246_
*282 _247_
*283 _248_
*284 _249_
*285 _250_
*286 _251_
*287 _252_
*288 _253_
*289 _254_
*290 _255_
*291 _256_
*292 _257_
*293 _258_
*294 _259_
*295 _260_
*296 _261_
*297 _262_
*298 _263_
*299 _264_
*300 _265_
*301 _266_
*302 _267_
*303 _268_
*304 _269_
*305 _270_
*306 _271_
*307 _272_
*308 _273_
*309 _274_
*310 _275_
*311 net1
*312 net10
*313 net11
*314 net12
*315 net13
*316 net14
*317 net15
*318 net16
*319 net17
*320 net18
*321 net19
*322 net2
*323 net20
*324 net21
*325 net22
*326 net23
*327 net24
*328 net25
*329 net26
*330 net27
*331 net28
*332 net29
*333 net3
*334 net30
*335 net31
*336 net32
*337 net33
*338 net34
*339 net35
*340 net36
*341 net37
*342 net38
*343 net39
*344 net4
*345 net40
*346 net41
*347 net42
*348 net43
*349 net44
*350 net45
*351 net46
*352 net47
*353 net48
*354 net49
*355 net5
*356 net50
*357 net51
*358 net52
*359 net53
*360 net54
*361 net55
*362 net56
*363 net57
*364 net58
*365 net59
*366 net6
*367 net60
*368 net61
*369 net62
*370 net63
*371 net64
*372 net65
*373 net66
*374 net67
*375 net68
*376 net69
*377 net7
*378 net70
*379 net71
*380 net72
*381 net73
*382 net74
*383 net8
*384 net9
*385 ANTENNA_1
*386 FILLER_0_109
*387 FILLER_0_113
*388 FILLER_0_125
*389 FILLER_0_133
*390 FILLER_0_139
*391 FILLER_0_141
*392 FILLER_0_15
*393 FILLER_0_153
*394 FILLER_0_165
*395 FILLER_0_169
*396 FILLER_0_181
*397 FILLER_0_193
*398 FILLER_0_197
*399 FILLER_0_213
*400 FILLER_0_221
*401 FILLER_0_225
*402 FILLER_0_233
*403 FILLER_0_238
*404 FILLER_0_245
*405 FILLER_0_251
*406 FILLER_0_253
*407 FILLER_0_265
*408 FILLER_0_27
*409 FILLER_0_277
*410 FILLER_0_281
*411 FILLER_0_289
*412 FILLER_0_29
*413 FILLER_0_3
*414 FILLER_0_301
*415 FILLER_0_307
*416 FILLER_0_309
*417 FILLER_0_321
*418 FILLER_0_333
*419 FILLER_0_337
*420 FILLER_0_349
*421 FILLER_0_361
*422 FILLER_0_365
*423 FILLER_0_377
*424 FILLER_0_389
*425 FILLER_0_393
*426 FILLER_0_405
*427 FILLER_0_41
*428 FILLER_0_53
*429 FILLER_0_57
*430 FILLER_0_69
*431 FILLER_0_81
*432 FILLER_0_85
*433 FILLER_0_97
*434 FILLER_10_109
*435 FILLER_10_121
*436 FILLER_10_133
*437 FILLER_10_139
*438 FILLER_10_141
*439 FILLER_10_15
*440 FILLER_10_153
*441 FILLER_10_165
*442 FILLER_10_177
*443 FILLER_10_189
*444 FILLER_10_195
*445 FILLER_10_197
*446 FILLER_10_209
*447 FILLER_10_221
*448 FILLER_10_233
*449 FILLER_10_245
*450 FILLER_10_251
*451 FILLER_10_253
*452 FILLER_10_265
*453 FILLER_10_27
*454 FILLER_10_277
*455 FILLER_10_289
*456 FILLER_10_29
*457 FILLER_10_3
*458 FILLER_10_301
*459 FILLER_10_307
*460 FILLER_10_309
*461 FILLER_10_321
*462 FILLER_10_333
*463 FILLER_10_345
*464 FILLER_10_357
*465 FILLER_10_363
*466 FILLER_10_365
*467 FILLER_10_377
*468 FILLER_10_389
*469 FILLER_10_401
*470 FILLER_10_41
*471 FILLER_10_53
*472 FILLER_10_65
*473 FILLER_10_77
*474 FILLER_10_83
*475 FILLER_10_85
*476 FILLER_10_97
*477 FILLER_11_105
*478 FILLER_11_111
*479 FILLER_11_113
*480 FILLER_11_125
*481 FILLER_11_137
*482 FILLER_11_149
*483 FILLER_11_15
*484 FILLER_11_161
*485 FILLER_11_167
*486 FILLER_11_169
*487 FILLER_11_181
*488 FILLER_11_193
*489 FILLER_11_205
*490 FILLER_11_217
*491 FILLER_11_223
*492 FILLER_11_225
*493 FILLER_11_237
*494 FILLER_11_249
*495 FILLER_11_261
*496 FILLER_11_27
*497 FILLER_11_273
*498 FILLER_11_279
*499 FILLER_11_281
*500 FILLER_11_293
*501 FILLER_11_3
*502 FILLER_11_305
*503 FILLER_11_317
*504 FILLER_11_329
*505 FILLER_11_335
*506 FILLER_11_337
*507 FILLER_11_349
*508 FILLER_11_361
*509 FILLER_11_373
*510 FILLER_11_385
*511 FILLER_11_39
*512 FILLER_11_391
*513 FILLER_11_393
*514 FILLER_11_405
*515 FILLER_11_51
*516 FILLER_11_55
*517 FILLER_11_57
*518 FILLER_11_69
*519 FILLER_11_81
*520 FILLER_11_93
*521 FILLER_12_109
*522 FILLER_12_121
*523 FILLER_12_133
*524 FILLER_12_139
*525 FILLER_12_141
*526 FILLER_12_15
*527 FILLER_12_153
*528 FILLER_12_165
*529 FILLER_12_177
*530 FILLER_12_189
*531 FILLER_12_195
*532 FILLER_12_197
*533 FILLER_12_209
*534 FILLER_12_221
*535 FILLER_12_233
*536 FILLER_12_245
*537 FILLER_12_251
*538 FILLER_12_253
*539 FILLER_12_265
*540 FILLER_12_27
*541 FILLER_12_277
*542 FILLER_12_289
*543 FILLER_12_29
*544 FILLER_12_3
*545 FILLER_12_301
*546 FILLER_12_307
*547 FILLER_12_309
*548 FILLER_12_321
*549 FILLER_12_333
*550 FILLER_12_345
*551 FILLER_12_357
*552 FILLER_12_363
*553 FILLER_12_365
*554 FILLER_12_377
*555 FILLER_12_389
*556 FILLER_12_401
*557 FILLER_12_41
*558 FILLER_12_53
*559 FILLER_12_65
*560 FILLER_12_77
*561 FILLER_12_83
*562 FILLER_12_85
*563 FILLER_12_97
*564 FILLER_13_105
*565 FILLER_13_111
*566 FILLER_13_113
*567 FILLER_13_125
*568 FILLER_13_137
*569 FILLER_13_149
*570 FILLER_13_15
*571 FILLER_13_161
*572 FILLER_13_167
*573 FILLER_13_169
*574 FILLER_13_181
*575 FILLER_13_193
*576 FILLER_13_205
*577 FILLER_13_217
*578 FILLER_13_223
*579 FILLER_13_225
*580 FILLER_13_237
*581 FILLER_13_249
*582 FILLER_13_261
*583 FILLER_13_27
*584 FILLER_13_273
*585 FILLER_13_279
*586 FILLER_13_281
*587 FILLER_13_293
*588 FILLER_13_3
*589 FILLER_13_305
*590 FILLER_13_317
*591 FILLER_13_329
*592 FILLER_13_335
*593 FILLER_13_337
*594 FILLER_13_349
*595 FILLER_13_361
*596 FILLER_13_373
*597 FILLER_13_385
*598 FILLER_13_39
*599 FILLER_13_391
*600 FILLER_13_393
*601 FILLER_13_405
*602 FILLER_13_51
*603 FILLER_13_55
*604 FILLER_13_57
*605 FILLER_13_69
*606 FILLER_13_81
*607 FILLER_13_93
*608 FILLER_14_109
*609 FILLER_14_121
*610 FILLER_14_133
*611 FILLER_14_139
*612 FILLER_14_141
*613 FILLER_14_15
*614 FILLER_14_153
*615 FILLER_14_165
*616 FILLER_14_177
*617 FILLER_14_189
*618 FILLER_14_195
*619 FILLER_14_197
*620 FILLER_14_209
*621 FILLER_14_221
*622 FILLER_14_233
*623 FILLER_14_245
*624 FILLER_14_251
*625 FILLER_14_253
*626 FILLER_14_265
*627 FILLER_14_27
*628 FILLER_14_277
*629 FILLER_14_289
*630 FILLER_14_29
*631 FILLER_14_3
*632 FILLER_14_301
*633 FILLER_14_307
*634 FILLER_14_309
*635 FILLER_14_321
*636 FILLER_14_333
*637 FILLER_14_345
*638 FILLER_14_357
*639 FILLER_14_363
*640 FILLER_14_365
*641 FILLER_14_377
*642 FILLER_14_389
*643 FILLER_14_401
*644 FILLER_14_41
*645 FILLER_14_53
*646 FILLER_14_65
*647 FILLER_14_77
*648 FILLER_14_83
*649 FILLER_14_85
*650 FILLER_14_97
*651 FILLER_15_101
*652 FILLER_15_110
*653 FILLER_15_113
*654 FILLER_15_125
*655 FILLER_15_137
*656 FILLER_15_149
*657 FILLER_15_15
*658 FILLER_15_161
*659 FILLER_15_167
*660 FILLER_15_169
*661 FILLER_15_181
*662 FILLER_15_193
*663 FILLER_15_205
*664 FILLER_15_217
*665 FILLER_15_223
*666 FILLER_15_228
*667 FILLER_15_240
*668 FILLER_15_252
*669 FILLER_15_264
*670 FILLER_15_27
*671 FILLER_15_276
*672 FILLER_15_281
*673 FILLER_15_293
*674 FILLER_15_3
*675 FILLER_15_305
*676 FILLER_15_317
*677 FILLER_15_329
*678 FILLER_15_335
*679 FILLER_15_337
*680 FILLER_15_349
*681 FILLER_15_361
*682 FILLER_15_373
*683 FILLER_15_385
*684 FILLER_15_39
*685 FILLER_15_391
*686 FILLER_15_393
*687 FILLER_15_405
*688 FILLER_15_51
*689 FILLER_15_55
*690 FILLER_15_57
*691 FILLER_15_69
*692 FILLER_15_81
*693 FILLER_15_93
*694 FILLER_16_109
*695 FILLER_16_121
*696 FILLER_16_133
*697 FILLER_16_139
*698 FILLER_16_141
*699 FILLER_16_15
*700 FILLER_16_153
*701 FILLER_16_165
*702 FILLER_16_177
*703 FILLER_16_189
*704 FILLER_16_195
*705 FILLER_16_197
*706 FILLER_16_209
*707 FILLER_16_217
*708 FILLER_16_230
*709 FILLER_16_242
*710 FILLER_16_250
*711 FILLER_16_253
*712 FILLER_16_265
*713 FILLER_16_27
*714 FILLER_16_277
*715 FILLER_16_289
*716 FILLER_16_29
*717 FILLER_16_3
*718 FILLER_16_301
*719 FILLER_16_307
*720 FILLER_16_309
*721 FILLER_16_321
*722 FILLER_16_333
*723 FILLER_16_345
*724 FILLER_16_357
*725 FILLER_16_363
*726 FILLER_16_365
*727 FILLER_16_377
*728 FILLER_16_389
*729 FILLER_16_401
*730 FILLER_16_41
*731 FILLER_16_53
*732 FILLER_16_65
*733 FILLER_16_77
*734 FILLER_16_83
*735 FILLER_16_85
*736 FILLER_16_97
*737 FILLER_17_106
*738 FILLER_17_118
*739 FILLER_17_129
*740 FILLER_17_141
*741 FILLER_17_15
*742 FILLER_17_153
*743 FILLER_17_165
*744 FILLER_17_169
*745 FILLER_17_181
*746 FILLER_17_193
*747 FILLER_17_205
*748 FILLER_17_214
*749 FILLER_17_221
*750 FILLER_17_225
*751 FILLER_17_237
*752 FILLER_17_249
*753 FILLER_17_261
*754 FILLER_17_27
*755 FILLER_17_273
*756 FILLER_17_279
*757 FILLER_17_281
*758 FILLER_17_293
*759 FILLER_17_3
*760 FILLER_17_305
*761 FILLER_17_317
*762 FILLER_17_329
*763 FILLER_17_335
*764 FILLER_17_337
*765 FILLER_17_349
*766 FILLER_17_361
*767 FILLER_17_373
*768 FILLER_17_385
*769 FILLER_17_39
*770 FILLER_17_391
*771 FILLER_17_393
*772 FILLER_17_405
*773 FILLER_17_51
*774 FILLER_17_55
*775 FILLER_17_57
*776 FILLER_17_69
*777 FILLER_17_81
*778 FILLER_17_93
*779 FILLER_18_112
*780 FILLER_18_124
*781 FILLER_18_136
*782 FILLER_18_141
*783 FILLER_18_15
*784 FILLER_18_153
*785 FILLER_18_165
*786 FILLER_18_177
*787 FILLER_18_190
*788 FILLER_18_200
*789 FILLER_18_212
*790 FILLER_18_233
*791 FILLER_18_245
*792 FILLER_18_251
*793 FILLER_18_260
*794 FILLER_18_27
*795 FILLER_18_272
*796 FILLER_18_284
*797 FILLER_18_29
*798 FILLER_18_296
*799 FILLER_18_3
*800 FILLER_18_309
*801 FILLER_18_321
*802 FILLER_18_333
*803 FILLER_18_345
*804 FILLER_18_357
*805 FILLER_18_363
*806 FILLER_18_365
*807 FILLER_18_377
*808 FILLER_18_389
*809 FILLER_18_401
*810 FILLER_18_41
*811 FILLER_18_53
*812 FILLER_18_65
*813 FILLER_18_85
*814 FILLER_18_97
*815 FILLER_19_109
*816 FILLER_19_113
*817 FILLER_19_125
*818 FILLER_19_141
*819 FILLER_19_153
*820 FILLER_19_165
*821 FILLER_19_169
*822 FILLER_19_181
*823 FILLER_19_19
*824 FILLER_19_200
*825 FILLER_19_212
*826 FILLER_19_225
*827 FILLER_19_237
*828 FILLER_19_269
*829 FILLER_19_277
*830 FILLER_19_281
*831 FILLER_19_293
*832 FILLER_19_305
*833 FILLER_19_31
*834 FILLER_19_317
*835 FILLER_19_329
*836 FILLER_19_335
*837 FILLER_19_337
*838 FILLER_19_349
*839 FILLER_19_361
*840 FILLER_19_373
*841 FILLER_19_385
*842 FILLER_19_391
*843 FILLER_19_393
*844 FILLER_19_43
*845 FILLER_19_55
*846 FILLER_19_57
*847 FILLER_19_65
*848 FILLER_19_7
*849 FILLER_19_73
*850 FILLER_19_85
*851 FILLER_19_97
*852 FILLER_1_105
*853 FILLER_1_111
*854 FILLER_1_113
*855 FILLER_1_125
*856 FILLER_1_137
*857 FILLER_1_149
*858 FILLER_1_15
*859 FILLER_1_161
*860 FILLER_1_167
*861 FILLER_1_169
*862 FILLER_1_181
*863 FILLER_1_193
*864 FILLER_1_205
*865 FILLER_1_217
*866 FILLER_1_223
*867 FILLER_1_225
*868 FILLER_1_237
*869 FILLER_1_249
*870 FILLER_1_261
*871 FILLER_1_27
*872 FILLER_1_273
*873 FILLER_1_279
*874 FILLER_1_281
*875 FILLER_1_293
*876 FILLER_1_3
*877 FILLER_1_305
*878 FILLER_1_317
*879 FILLER_1_329
*880 FILLER_1_335
*881 FILLER_1_337
*882 FILLER_1_349
*883 FILLER_1_361
*884 FILLER_1_373
*885 FILLER_1_385
*886 FILLER_1_39
*887 FILLER_1_391
*888 FILLER_1_393
*889 FILLER_1_405
*890 FILLER_1_51
*891 FILLER_1_55
*892 FILLER_1_57
*893 FILLER_1_69
*894 FILLER_1_81
*895 FILLER_1_93
*896 FILLER_20_11
*897 FILLER_20_135
*898 FILLER_20_139
*899 FILLER_20_141
*900 FILLER_20_153
*901 FILLER_20_165
*902 FILLER_20_177
*903 FILLER_20_189
*904 FILLER_20_19
*905 FILLER_20_195
*906 FILLER_20_197
*907 FILLER_20_209
*908 FILLER_20_221
*909 FILLER_20_233
*910 FILLER_20_245
*911 FILLER_20_251
*912 FILLER_20_258
*913 FILLER_20_27
*914 FILLER_20_270
*915 FILLER_20_282
*916 FILLER_20_29
*917 FILLER_20_294
*918 FILLER_20_306
*919 FILLER_20_309
*920 FILLER_20_321
*921 FILLER_20_333
*922 FILLER_20_345
*923 FILLER_20_357
*924 FILLER_20_363
*925 FILLER_20_365
*926 FILLER_20_377
*927 FILLER_20_389
*928 FILLER_20_401
*929 FILLER_20_41
*930 FILLER_20_53
*931 FILLER_20_7
*932 FILLER_20_98
*933 FILLER_21_105
*934 FILLER_21_113
*935 FILLER_21_125
*936 FILLER_21_137
*937 FILLER_21_149
*938 FILLER_21_15
*939 FILLER_21_161
*940 FILLER_21_167
*941 FILLER_21_169
*942 FILLER_21_181
*943 FILLER_21_193
*944 FILLER_21_205
*945 FILLER_21_217
*946 FILLER_21_223
*947 FILLER_21_225
*948 FILLER_21_237
*949 FILLER_21_249
*950 FILLER_21_261
*951 FILLER_21_27
*952 FILLER_21_272
*953 FILLER_21_281
*954 FILLER_21_293
*955 FILLER_21_3
*956 FILLER_21_305
*957 FILLER_21_317
*958 FILLER_21_329
*959 FILLER_21_335
*960 FILLER_21_337
*961 FILLER_21_349
*962 FILLER_21_361
*963 FILLER_21_373
*964 FILLER_21_385
*965 FILLER_21_39
*966 FILLER_21_391
*967 FILLER_21_393
*968 FILLER_21_405
*969 FILLER_21_51
*970 FILLER_21_55
*971 FILLER_21_57
*972 FILLER_21_69
*973 FILLER_21_81
*974 FILLER_21_93
*975 FILLER_22_105
*976 FILLER_22_11
*977 FILLER_22_115
*978 FILLER_22_130
*979 FILLER_22_138
*980 FILLER_22_141
*981 FILLER_22_153
*982 FILLER_22_168
*983 FILLER_22_180
*984 FILLER_22_192
*985 FILLER_22_197
*986 FILLER_22_205
*987 FILLER_22_21
*988 FILLER_22_222
*989 FILLER_22_239
*990 FILLER_22_251
*991 FILLER_22_253
*992 FILLER_22_265
*993 FILLER_22_27
*994 FILLER_22_277
*995 FILLER_22_289
*996 FILLER_22_29
*997 FILLER_22_3
*998 FILLER_22_301
*999 FILLER_22_307
*1000 FILLER_22_309
*1001 FILLER_22_321
*1002 FILLER_22_333
*1003 FILLER_22_345
*1004 FILLER_22_357
*1005 FILLER_22_363
*1006 FILLER_22_365
*1007 FILLER_22_377
*1008 FILLER_22_389
*1009 FILLER_22_401
*1010 FILLER_22_41
*1011 FILLER_22_53
*1012 FILLER_22_65
*1013 FILLER_22_77
*1014 FILLER_22_83
*1015 FILLER_22_85
*1016 FILLER_22_97
*1017 FILLER_23_11
*1018 FILLER_23_110
*1019 FILLER_23_113
*1020 FILLER_23_125
*1021 FILLER_23_137
*1022 FILLER_23_145
*1023 FILLER_23_166
*1024 FILLER_23_180
*1025 FILLER_23_192
*1026 FILLER_23_204
*1027 FILLER_23_216
*1028 FILLER_23_23
*1029 FILLER_23_232
*1030 FILLER_23_244
*1031 FILLER_23_256
*1032 FILLER_23_268
*1033 FILLER_23_281
*1034 FILLER_23_293
*1035 FILLER_23_3
*1036 FILLER_23_305
*1037 FILLER_23_317
*1038 FILLER_23_32
*1039 FILLER_23_329
*1040 FILLER_23_335
*1041 FILLER_23_337
*1042 FILLER_23_349
*1043 FILLER_23_361
*1044 FILLER_23_373
*1045 FILLER_23_385
*1046 FILLER_23_391
*1047 FILLER_23_393
*1048 FILLER_23_405
*1049 FILLER_23_44
*1050 FILLER_23_52
*1051 FILLER_23_57
*1052 FILLER_23_74
*1053 FILLER_23_86
*1054 FILLER_23_98
*1055 FILLER_24_111
*1056 FILLER_24_123
*1057 FILLER_24_135
*1058 FILLER_24_139
*1059 FILLER_24_141
*1060 FILLER_24_149
*1061 FILLER_24_160
*1062 FILLER_24_172
*1063 FILLER_24_184
*1064 FILLER_24_197
*1065 FILLER_24_209
*1066 FILLER_24_217
*1067 FILLER_24_229
*1068 FILLER_24_241
*1069 FILLER_24_27
*1070 FILLER_24_279
*1071 FILLER_24_29
*1072 FILLER_24_291
*1073 FILLER_24_303
*1074 FILLER_24_307
*1075 FILLER_24_309
*1076 FILLER_24_321
*1077 FILLER_24_333
*1078 FILLER_24_345
*1079 FILLER_24_357
*1080 FILLER_24_363
*1081 FILLER_24_365
*1082 FILLER_24_377
*1083 FILLER_24_389
*1084 FILLER_24_401
*1085 FILLER_24_41
*1086 FILLER_24_49
*1087 FILLER_24_57
*1088 FILLER_24_66
*1089 FILLER_24_7
*1090 FILLER_24_79
*1091 FILLER_24_83
*1092 FILLER_24_85
*1093 FILLER_25_108
*1094 FILLER_25_113
*1095 FILLER_25_125
*1096 FILLER_25_137
*1097 FILLER_25_149
*1098 FILLER_25_161
*1099 FILLER_25_167
*1100 FILLER_25_169
*1101 FILLER_25_181
*1102 FILLER_25_193
*1103 FILLER_25_210
*1104 FILLER_25_222
*1105 FILLER_25_225
*1106 FILLER_25_237
*1107 FILLER_25_249
*1108 FILLER_25_26
*1109 FILLER_25_261
*1110 FILLER_25_273
*1111 FILLER_25_279
*1112 FILLER_25_281
*1113 FILLER_25_293
*1114 FILLER_25_305
*1115 FILLER_25_317
*1116 FILLER_25_329
*1117 FILLER_25_335
*1118 FILLER_25_337
*1119 FILLER_25_349
*1120 FILLER_25_361
*1121 FILLER_25_373
*1122 FILLER_25_38
*1123 FILLER_25_385
*1124 FILLER_25_391
*1125 FILLER_25_393
*1126 FILLER_25_405
*1127 FILLER_25_61
*1128 FILLER_25_73
*1129 FILLER_25_85
*1130 FILLER_25_9
*1131 FILLER_25_96
*1132 FILLER_26_109
*1133 FILLER_26_121
*1134 FILLER_26_133
*1135 FILLER_26_139
*1136 FILLER_26_141
*1137 FILLER_26_149
*1138 FILLER_26_160
*1139 FILLER_26_174
*1140 FILLER_26_186
*1141 FILLER_26_194
*1142 FILLER_26_197
*1143 FILLER_26_209
*1144 FILLER_26_221
*1145 FILLER_26_233
*1146 FILLER_26_245
*1147 FILLER_26_251
*1148 FILLER_26_253
*1149 FILLER_26_265
*1150 FILLER_26_277
*1151 FILLER_26_289
*1152 FILLER_26_29
*1153 FILLER_26_301
*1154 FILLER_26_307
*1155 FILLER_26_309
*1156 FILLER_26_321
*1157 FILLER_26_333
*1158 FILLER_26_345
*1159 FILLER_26_35
*1160 FILLER_26_357
*1161 FILLER_26_363
*1162 FILLER_26_365
*1163 FILLER_26_377
*1164 FILLER_26_389
*1165 FILLER_26_397
*1166 FILLER_26_68
*1167 FILLER_26_7
*1168 FILLER_26_80
*1169 FILLER_26_85
*1170 FILLER_26_97
*1171 FILLER_27_101
*1172 FILLER_27_109
*1173 FILLER_27_113
*1174 FILLER_27_125
*1175 FILLER_27_153
*1176 FILLER_27_157
*1177 FILLER_27_167
*1178 FILLER_27_174
*1179 FILLER_27_186
*1180 FILLER_27_198
*1181 FILLER_27_209
*1182 FILLER_27_221
*1183 FILLER_27_225
*1184 FILLER_27_237
*1185 FILLER_27_249
*1186 FILLER_27_261
*1187 FILLER_27_27
*1188 FILLER_27_273
*1189 FILLER_27_279
*1190 FILLER_27_294
*1191 FILLER_27_3
*1192 FILLER_27_306
*1193 FILLER_27_318
*1194 FILLER_27_330
*1195 FILLER_27_337
*1196 FILLER_27_349
*1197 FILLER_27_35
*1198 FILLER_27_361
*1199 FILLER_27_373
*1200 FILLER_27_385
*1201 FILLER_27_391
*1202 FILLER_27_393
*1203 FILLER_27_405
*1204 FILLER_27_53
*1205 FILLER_27_57
*1206 FILLER_27_69
*1207 FILLER_27_81
*1208 FILLER_28_116
*1209 FILLER_28_128
*1210 FILLER_28_148
*1211 FILLER_28_15
*1212 FILLER_28_160
*1213 FILLER_28_172
*1214 FILLER_28_184
*1215 FILLER_28_197
*1216 FILLER_28_209
*1217 FILLER_28_221
*1218 FILLER_28_233
*1219 FILLER_28_237
*1220 FILLER_28_251
*1221 FILLER_28_253
*1222 FILLER_28_265
*1223 FILLER_28_27
*1224 FILLER_28_273
*1225 FILLER_28_282
*1226 FILLER_28_29
*1227 FILLER_28_294
*1228 FILLER_28_3
*1229 FILLER_28_306
*1230 FILLER_28_309
*1231 FILLER_28_321
*1232 FILLER_28_333
*1233 FILLER_28_345
*1234 FILLER_28_357
*1235 FILLER_28_363
*1236 FILLER_28_365
*1237 FILLER_28_377
*1238 FILLER_28_389
*1239 FILLER_28_401
*1240 FILLER_28_41
*1241 FILLER_28_52
*1242 FILLER_28_61
*1243 FILLER_28_73
*1244 FILLER_28_81
*1245 FILLER_29_101
*1246 FILLER_29_109
*1247 FILLER_29_113
*1248 FILLER_29_125
*1249 FILLER_29_137
*1250 FILLER_29_149
*1251 FILLER_29_15
*1252 FILLER_29_157
*1253 FILLER_29_165
*1254 FILLER_29_169
*1255 FILLER_29_177
*1256 FILLER_29_192
*1257 FILLER_29_204
*1258 FILLER_29_216
*1259 FILLER_29_248
*1260 FILLER_29_260
*1261 FILLER_29_27
*1262 FILLER_29_272
*1263 FILLER_29_281
*1264 FILLER_29_293
*1265 FILLER_29_3
*1266 FILLER_29_305
*1267 FILLER_29_317
*1268 FILLER_29_329
*1269 FILLER_29_335
*1270 FILLER_29_337
*1271 FILLER_29_349
*1272 FILLER_29_361
*1273 FILLER_29_373
*1274 FILLER_29_385
*1275 FILLER_29_39
*1276 FILLER_29_391
*1277 FILLER_29_393
*1278 FILLER_29_405
*1279 FILLER_29_51
*1280 FILLER_29_55
*1281 FILLER_29_67
*1282 FILLER_29_79
*1283 FILLER_29_87
*1284 FILLER_2_109
*1285 FILLER_2_121
*1286 FILLER_2_133
*1287 FILLER_2_139
*1288 FILLER_2_141
*1289 FILLER_2_15
*1290 FILLER_2_153
*1291 FILLER_2_165
*1292 FILLER_2_177
*1293 FILLER_2_189
*1294 FILLER_2_195
*1295 FILLER_2_197
*1296 FILLER_2_209
*1297 FILLER_2_221
*1298 FILLER_2_233
*1299 FILLER_2_245
*1300 FILLER_2_251
*1301 FILLER_2_253
*1302 FILLER_2_265
*1303 FILLER_2_27
*1304 FILLER_2_277
*1305 FILLER_2_289
*1306 FILLER_2_29
*1307 FILLER_2_3
*1308 FILLER_2_301
*1309 FILLER_2_307
*1310 FILLER_2_309
*1311 FILLER_2_321
*1312 FILLER_2_333
*1313 FILLER_2_345
*1314 FILLER_2_357
*1315 FILLER_2_363
*1316 FILLER_2_365
*1317 FILLER_2_377
*1318 FILLER_2_389
*1319 FILLER_2_401
*1320 FILLER_2_41
*1321 FILLER_2_53
*1322 FILLER_2_65
*1323 FILLER_2_77
*1324 FILLER_2_83
*1325 FILLER_2_85
*1326 FILLER_2_97
*1327 FILLER_30_109
*1328 FILLER_30_121
*1329 FILLER_30_133
*1330 FILLER_30_139
*1331 FILLER_30_141
*1332 FILLER_30_15
*1333 FILLER_30_153
*1334 FILLER_30_165
*1335 FILLER_30_177
*1336 FILLER_30_189
*1337 FILLER_30_195
*1338 FILLER_30_197
*1339 FILLER_30_203
*1340 FILLER_30_215
*1341 FILLER_30_227
*1342 FILLER_30_239
*1343 FILLER_30_251
*1344 FILLER_30_253
*1345 FILLER_30_265
*1346 FILLER_30_27
*1347 FILLER_30_277
*1348 FILLER_30_289
*1349 FILLER_30_29
*1350 FILLER_30_3
*1351 FILLER_30_301
*1352 FILLER_30_307
*1353 FILLER_30_309
*1354 FILLER_30_321
*1355 FILLER_30_333
*1356 FILLER_30_345
*1357 FILLER_30_357
*1358 FILLER_30_363
*1359 FILLER_30_365
*1360 FILLER_30_377
*1361 FILLER_30_389
*1362 FILLER_30_401
*1363 FILLER_30_41
*1364 FILLER_30_45
*1365 FILLER_30_73
*1366 FILLER_30_81
*1367 FILLER_30_85
*1368 FILLER_30_97
*1369 FILLER_31_103
*1370 FILLER_31_111
*1371 FILLER_31_113
*1372 FILLER_31_125
*1373 FILLER_31_137
*1374 FILLER_31_141
*1375 FILLER_31_146
*1376 FILLER_31_154
*1377 FILLER_31_161
*1378 FILLER_31_167
*1379 FILLER_31_169
*1380 FILLER_31_18
*1381 FILLER_31_181
*1382 FILLER_31_193
*1383 FILLER_31_205
*1384 FILLER_31_217
*1385 FILLER_31_223
*1386 FILLER_31_225
*1387 FILLER_31_237
*1388 FILLER_31_245
*1389 FILLER_31_252
*1390 FILLER_31_260
*1391 FILLER_31_267
*1392 FILLER_31_279
*1393 FILLER_31_281
*1394 FILLER_31_293
*1395 FILLER_31_30
*1396 FILLER_31_305
*1397 FILLER_31_317
*1398 FILLER_31_329
*1399 FILLER_31_335
*1400 FILLER_31_337
*1401 FILLER_31_349
*1402 FILLER_31_361
*1403 FILLER_31_373
*1404 FILLER_31_385
*1405 FILLER_31_391
*1406 FILLER_31_393
*1407 FILLER_31_397
*1408 FILLER_31_42
*1409 FILLER_31_6
*1410 FILLER_31_68
*1411 FILLER_31_80
*1412 FILLER_31_92
*1413 FILLER_32_108
*1414 FILLER_32_120
*1415 FILLER_32_132
*1416 FILLER_32_141
*1417 FILLER_32_153
*1418 FILLER_32_165
*1419 FILLER_32_177
*1420 FILLER_32_18
*1421 FILLER_32_189
*1422 FILLER_32_195
*1423 FILLER_32_197
*1424 FILLER_32_209
*1425 FILLER_32_221
*1426 FILLER_32_233
*1427 FILLER_32_245
*1428 FILLER_32_251
*1429 FILLER_32_253
*1430 FILLER_32_26
*1431 FILLER_32_265
*1432 FILLER_32_271
*1433 FILLER_32_276
*1434 FILLER_32_29
*1435 FILLER_32_292
*1436 FILLER_32_304
*1437 FILLER_32_309
*1438 FILLER_32_321
*1439 FILLER_32_333
*1440 FILLER_32_345
*1441 FILLER_32_357
*1442 FILLER_32_363
*1443 FILLER_32_365
*1444 FILLER_32_377
*1445 FILLER_32_389
*1446 FILLER_32_401
*1447 FILLER_32_41
*1448 FILLER_32_47
*1449 FILLER_32_55
*1450 FILLER_32_6
*1451 FILLER_32_67
*1452 FILLER_32_79
*1453 FILLER_32_83
*1454 FILLER_32_85
*1455 FILLER_32_91
*1456 FILLER_32_96
*1457 FILLER_33_105
*1458 FILLER_33_111
*1459 FILLER_33_113
*1460 FILLER_33_125
*1461 FILLER_33_137
*1462 FILLER_33_146
*1463 FILLER_33_15
*1464 FILLER_33_150
*1465 FILLER_33_160
*1466 FILLER_33_169
*1467 FILLER_33_192
*1468 FILLER_33_208
*1469 FILLER_33_220
*1470 FILLER_33_225
*1471 FILLER_33_237
*1472 FILLER_33_244
*1473 FILLER_33_256
*1474 FILLER_33_268
*1475 FILLER_33_281
*1476 FILLER_33_293
*1477 FILLER_33_3
*1478 FILLER_33_30
*1479 FILLER_33_305
*1480 FILLER_33_317
*1481 FILLER_33_329
*1482 FILLER_33_335
*1483 FILLER_33_337
*1484 FILLER_33_349
*1485 FILLER_33_361
*1486 FILLER_33_373
*1487 FILLER_33_385
*1488 FILLER_33_391
*1489 FILLER_33_393
*1490 FILLER_33_405
*1491 FILLER_33_42
*1492 FILLER_33_54
*1493 FILLER_33_57
*1494 FILLER_33_69
*1495 FILLER_33_81
*1496 FILLER_33_93
*1497 FILLER_34_100
*1498 FILLER_34_108
*1499 FILLER_34_112
*1500 FILLER_34_124
*1501 FILLER_34_136
*1502 FILLER_34_141
*1503 FILLER_34_153
*1504 FILLER_34_165
*1505 FILLER_34_191
*1506 FILLER_34_195
*1507 FILLER_34_197
*1508 FILLER_34_201
*1509 FILLER_34_210
*1510 FILLER_34_222
*1511 FILLER_34_237
*1512 FILLER_34_249
*1513 FILLER_34_25
*1514 FILLER_34_281
*1515 FILLER_34_293
*1516 FILLER_34_305
*1517 FILLER_34_309
*1518 FILLER_34_321
*1519 FILLER_34_333
*1520 FILLER_34_345
*1521 FILLER_34_357
*1522 FILLER_34_363
*1523 FILLER_34_365
*1524 FILLER_34_37
*1525 FILLER_34_377
*1526 FILLER_34_389
*1527 FILLER_34_401
*1528 FILLER_34_49
*1529 FILLER_34_61
*1530 FILLER_34_73
*1531 FILLER_34_81
*1532 FILLER_34_88
*1533 FILLER_35_108
*1534 FILLER_35_113
*1535 FILLER_35_125
*1536 FILLER_35_13
*1537 FILLER_35_137
*1538 FILLER_35_144
*1539 FILLER_35_148
*1540 FILLER_35_160
*1541 FILLER_35_169
*1542 FILLER_35_181
*1543 FILLER_35_193
*1544 FILLER_35_205
*1545 FILLER_35_209
*1546 FILLER_35_22
*1547 FILLER_35_223
*1548 FILLER_35_225
*1549 FILLER_35_229
*1550 FILLER_35_235
*1551 FILLER_35_253
*1552 FILLER_35_265
*1553 FILLER_35_269
*1554 FILLER_35_278
*1555 FILLER_35_281
*1556 FILLER_35_29
*1557 FILLER_35_293
*1558 FILLER_35_305
*1559 FILLER_35_317
*1560 FILLER_35_329
*1561 FILLER_35_335
*1562 FILLER_35_337
*1563 FILLER_35_349
*1564 FILLER_35_361
*1565 FILLER_35_373
*1566 FILLER_35_385
*1567 FILLER_35_391
*1568 FILLER_35_393
*1569 FILLER_35_405
*1570 FILLER_35_41
*1571 FILLER_35_53
*1572 FILLER_35_57
*1573 FILLER_35_69
*1574 FILLER_35_75
*1575 FILLER_35_89
*1576 FILLER_35_96
*1577 FILLER_36_109
*1578 FILLER_36_121
*1579 FILLER_36_127
*1580 FILLER_36_138
*1581 FILLER_36_141
*1582 FILLER_36_15
*1583 FILLER_36_153
*1584 FILLER_36_165
*1585 FILLER_36_177
*1586 FILLER_36_189
*1587 FILLER_36_195
*1588 FILLER_36_197
*1589 FILLER_36_209
*1590 FILLER_36_221
*1591 FILLER_36_233
*1592 FILLER_36_24
*1593 FILLER_36_245
*1594 FILLER_36_251
*1595 FILLER_36_253
*1596 FILLER_36_265
*1597 FILLER_36_277
*1598 FILLER_36_289
*1599 FILLER_36_29
*1600 FILLER_36_3
*1601 FILLER_36_301
*1602 FILLER_36_307
*1603 FILLER_36_309
*1604 FILLER_36_321
*1605 FILLER_36_333
*1606 FILLER_36_345
*1607 FILLER_36_357
*1608 FILLER_36_363
*1609 FILLER_36_365
*1610 FILLER_36_377
*1611 FILLER_36_389
*1612 FILLER_36_401
*1613 FILLER_36_41
*1614 FILLER_36_67
*1615 FILLER_36_74
*1616 FILLER_36_82
*1617 FILLER_36_85
*1618 FILLER_36_97
*1619 FILLER_37_102
*1620 FILLER_37_110
*1621 FILLER_37_113
*1622 FILLER_37_125
*1623 FILLER_37_137
*1624 FILLER_37_15
*1625 FILLER_37_151
*1626 FILLER_37_163
*1627 FILLER_37_167
*1628 FILLER_37_169
*1629 FILLER_37_181
*1630 FILLER_37_193
*1631 FILLER_37_205
*1632 FILLER_37_217
*1633 FILLER_37_223
*1634 FILLER_37_225
*1635 FILLER_37_237
*1636 FILLER_37_249
*1637 FILLER_37_261
*1638 FILLER_37_27
*1639 FILLER_37_273
*1640 FILLER_37_279
*1641 FILLER_37_281
*1642 FILLER_37_293
*1643 FILLER_37_3
*1644 FILLER_37_305
*1645 FILLER_37_317
*1646 FILLER_37_329
*1647 FILLER_37_335
*1648 FILLER_37_337
*1649 FILLER_37_349
*1650 FILLER_37_361
*1651 FILLER_37_373
*1652 FILLER_37_38
*1653 FILLER_37_385
*1654 FILLER_37_391
*1655 FILLER_37_393
*1656 FILLER_37_405
*1657 FILLER_37_50
*1658 FILLER_37_71
*1659 FILLER_37_83
*1660 FILLER_37_92
*1661 FILLER_37_98
*1662 FILLER_38_107
*1663 FILLER_38_119
*1664 FILLER_38_138
*1665 FILLER_38_141
*1666 FILLER_38_15
*1667 FILLER_38_153
*1668 FILLER_38_165
*1669 FILLER_38_177
*1670 FILLER_38_189
*1671 FILLER_38_195
*1672 FILLER_38_197
*1673 FILLER_38_209
*1674 FILLER_38_217
*1675 FILLER_38_223
*1676 FILLER_38_235
*1677 FILLER_38_247
*1678 FILLER_38_251
*1679 FILLER_38_253
*1680 FILLER_38_265
*1681 FILLER_38_27
*1682 FILLER_38_277
*1683 FILLER_38_289
*1684 FILLER_38_29
*1685 FILLER_38_3
*1686 FILLER_38_301
*1687 FILLER_38_307
*1688 FILLER_38_309
*1689 FILLER_38_321
*1690 FILLER_38_333
*1691 FILLER_38_345
*1692 FILLER_38_357
*1693 FILLER_38_363
*1694 FILLER_38_365
*1695 FILLER_38_377
*1696 FILLER_38_389
*1697 FILLER_38_401
*1698 FILLER_38_41
*1699 FILLER_38_53
*1700 FILLER_38_65
*1701 FILLER_38_77
*1702 FILLER_38_83
*1703 FILLER_38_85
*1704 FILLER_38_89
*1705 FILLER_38_95
*1706 FILLER_39_105
*1707 FILLER_39_111
*1708 FILLER_39_113
*1709 FILLER_39_125
*1710 FILLER_39_137
*1711 FILLER_39_145
*1712 FILLER_39_165
*1713 FILLER_39_193
*1714 FILLER_39_208
*1715 FILLER_39_21
*1716 FILLER_39_220
*1717 FILLER_39_225