*SPEF "ieee 1481-1999"
*DESIGN "mult4_SARSA_RUIDO_e9_SARSA_RUIDO_e9_SARSA_RUIDO_e9_SARSA_RUIDO_e9"
*DATE "18:35:52 Tuesday September 16, 2025"
*VENDOR "The OpenROAD Project"
*PROGRAM "OpenROAD"
*VERSION "edf00dff99f6c40d67a30c0e22a8191c5d2ed9d6"
*DESIGN_FLOW "NAME_SCOPE LOCAL" "PIN_CAP NONE"
*DIVIDER /
*DELIMITER :
*BUS_DELIMITER []
*T_UNIT 1 NS
*C_UNIT 1 PF
*R_UNIT 1 OHM
*L_UNIT 1 HENRY

*NAME_MAP
*1 A[0]
*2 A[1]
*3 A[2]
*4 A[3]
*5 B[0]
*6 B[1]
*7 B[2]
*8 B[3]
*9 P[0]
*10 P[1]
*11 P[2]
*12 P[3]
*13 P[4]
*14 P[5]
*15 P[6]
*16 P[7]
*19 _00_
*20 _01_
*21 _02_
*22 _03_
*23 _04_
*24 _05_
*25 _06_
*26 _07_
*27 _08_
*28 _09_
*29 _10_
*30 _11_
*31 _12_
*32 _13_
*33 _14_
*34 _15_
*35 _16_
*36 _17_
*37 _18_
*38 _19_
*39 _20_
*40 _21_
*41 _22_
*42 _23_
*43 _24_
*44 _25_
*45 _26_
*46 _27_
*47 _28_
*48 _29_
*49 _30_
*50 _31_
*51 _32_
*52 _33_
*53 _34_
*54 _35_
*55 _36_
*56 _37_
*57 _38_
*58 _39_
*59 _40_
*60 _41_
*61 _42_
*62 _43_
*63 _44_
*64 _45_
*65 net1
*66 net10
*67 net11
*68 net12
*69 net13
*70 net14
*71 net15
*72 net16
*73 net2
*74 net3
*75 net4
*76 net5
*77 net6
*78 net7
*79 net8
*80 net9
*81 FILLER_0_15
*82 FILLER_0_23
*83 FILLER_0_3
*84 FILLER_0_38
*85 FILLER_0_51
*86 FILLER_0_57
*87 FILLER_0_62
*88 FILLER_0_70
*89 FILLER_0_78
*90 FILLER_1_15
*91 FILLER_1_3
*92 FILLER_1_31
*93 FILLER_1_41
*94 FILLER_2_16
*95 FILLER_2_29
*96 FILLER_2_3
*97 FILLER_2_42
*98 FILLER_2_46
*99 FILLER_2_52
*100 FILLER_2_64
*101 FILLER_2_73
*102 FILLER_2_77
*103 FILLER_3_24
*104 FILLER_3_3
*105 FILLER_3_32
*106 FILLER_4_17
*107 FILLER_4_25
*108 FILLER_4_29
*109 FILLER_4_3
*110 FILLER_4_41
*111 FILLER_4_53
*112 FILLER_4_65
*113 FILLER_4_9
*114 FILLER_5_11
*115 FILLER_5_19
*116 FILLER_5_27
*117 FILLER_5_40
*118 FILLER_5_52
*119 FILLER_5_63
*120 FILLER_5_71
*121 FILLER_6_10
*122 FILLER_6_17
*123 FILLER_6_24
*124 FILLER_6_29
*125 FILLER_6_46
*126 FILLER_6_60
*127 FILLER_7_15
*128 FILLER_7_27
*129 FILLER_7_3
*130 FILLER_7_38
*131 FILLER_7_50
*132 FILLER_7_57
*133 FILLER_7_65
*134 FILLER_8_17
*135 FILLER_8_25
*136 FILLER_8_3
*137 FILLER_8_47
*138 FILLER_8_65
*139 FILLER_8_77
*140 FILLER_8_9
*141 FILLER_9_19
*142 FILLER_9_27
*143 FILLER_9_29
*144 FILLER_9_41
*145 FILLER_9_49
*146 FILLER_9_64
*147 FILLER_9_7
*148 FILLER_9_74
*149 PHY_EDGE_ROW_0_Left_10
*150 PHY_EDGE_ROW_0_Right_0
*151 PHY_EDGE_ROW_1_Left_11
*152 PHY_EDGE_ROW_1_Right_1
*153 PHY_EDGE_ROW_2_Left_12
*154 PHY_EDGE_ROW_2_Right_2
*155 PHY_EDGE_ROW_3_Left_13
*156 PHY_EDGE_ROW_3_Right_3
*157 PHY_EDGE_ROW_4_Left_14
*158 PHY_EDGE_ROW_4_Right_4
*159 PHY_EDGE_ROW_5_Left_15
*160 PHY_EDGE_ROW_5_Right_5
*161 PHY_EDGE_ROW_6_Left_16
*162 PHY_EDGE_ROW_6_Right_6
*163 PHY_EDGE_ROW_7_Left_17
*164 PHY_EDGE_ROW_7_Right_7
*165 PHY_EDGE_ROW_8_Left_18
*166 PHY_EDGE_ROW_8_Right_8
*167 PHY_EDGE_ROW_9_Left_19
*168 PHY_EDGE_ROW_9_Right_9
*169 TAP_TAPCELL_ROW_0_20
*170 TAP_TAPCELL_ROW_0_21
*171 TAP_TAPCELL_ROW_1_22
*172 TAP_TAPCELL_ROW_2_23
*173 TAP_TAPCELL_ROW_3_24
*174 TAP_TAPCELL_ROW_4_25
*175 TAP_TAPCELL_ROW_5_26
*176 TAP_TAPCELL_ROW_6_27
*177 TAP_TAPCELL_ROW_7_28
*178 TAP_TAPCELL_ROW_8_29
*179 TAP_TAPCELL_ROW_9_30
*180 TAP_TAPCELL_ROW_9_31
*181 _46_
*182 _47_
*183 _48_
*184 _49_
*185 _50_
*186 _51_
*187 _52_
*188 _53_
*189 _54_
*190 _55_
*191 _56_
*192 _57_
*193 _58_
*194 _59_
*195 _60_
*196 _61_
*197 _62_
*198 _63_
*199 _64_
*200 _65_
*201 _66_
*202 _67_
*203 _68_
*204 _69_
*205 _70_
*206 _71_
*207 _72_
*208 _73_
*209 _74_
*210 _75_
*211 _76_
*212 _77_
*213 _78_
*214 _79_
*215 _80_
*216 _81_
*217 _82_
*218 _83_
*219 _84_
*220 _85_
*221 _86_
*222 _87_
*223 _88_
*224 _89_
*225 _90_
*226 _91_
*227 _92_
*228 _93_
*229 _94_
*230 _95_
*231 _96_
*232 _97_
*233 _98_
*234 _99_
*235 input1
*236 input2
*237 input3
*238 input4
*239 input5
*240 input6
*241 input7
*242 input8
*243 output10
*244 output11
*245 output12
*246 output13
*247 output14
*248 output15
*249 output16
*250 output9

*PORTS
A[0] I
A[1] I
A[2] I
A[3] I
B[0] I
B[1] I
B[2] I
B[3] I
P[0] O
P[1] O
P[2] O
P[3] O
P[4] O
P[5] O
P[6] O
P[7] O

*D_NET *1 0.00132028
*CONN
*P A[0] I
*I *235:A I *D sky130_fd_sc_hd__clkbuf_2
*CAP
1 A[0] 0.00044736
2 *235:A 0.00044736
3 *235:A *201:D 0.000102389
4 *235:A *2:17 7.75364e-05
5 *235:A *73:6 5.50106e-05
6 *235:A *73:19 0.00019063
*RES
1 A[0] *235:A 48.875 
*END

*D_NET *2 0.0019308
*CONN
*P A[1] I
*I *236:A I *D sky130_fd_sc_hd__buf_1
*CAP
1 A[1] 0.00061982
2 *236:A 0
3 *2:17 0.00061982
4 *2:17 *201:D 0.000144494
5 *2:17 *241:A 0
6 *2:17 *73:6 7.27085e-05
7 *2:17 *79:14 0.000174169
8 *2:17 *79:22 0.00022225
9 *235:A *2:17 7.75364e-05
*RES
1 A[1] *2:17 30.8464 
2 *2:17 *236:A 23 
*END

*D_NET *3 0.000710245
*CONN
*P A[2] I
*I *237:A I *D sky130_fd_sc_hd__clkbuf_2
*CAP
1 A[2] 0.000271768
2 *237:A 0.000271768
3 *237:A P[2] 8.60937e-05
4 *237:A *238:A 8.06147e-05
*RES
1 A[2] *237:A 48.9255 
*END

*D_NET *4 0.000546318
*CONN
*P A[3] I
*I *238:A I *D sky130_fd_sc_hd__buf_1
*CAP
1 A[3] 0.00022811
2 *238:A 0.00022811
3 *238:A P[6] 0
4 *238:A *51:12 9.48381e-06
5 *237:A *238:A 8.06147e-05
*RES
1 A[3] *238:A 47.7832 
*END

*D_NET *5 0.000459277
*CONN
*P B[0] I
*I *239:A I *D sky130_fd_sc_hd__buf_1
*CAP
1 B[0] 0.000153251
2 *239:A 0.000153251
3 *239:A P[0] 7.21596e-05
4 *239:A P[2] 8.06147e-05
5 *239:A *25:10 0
*RES
1 B[0] *239:A 47.0789 
*END

*D_NET *6 0.000918468
*CONN
*P B[1] I
*I *240:A I *D sky130_fd_sc_hd__buf_1
*CAP
1 B[1] 0.000444542
2 *240:A 0.000444542
3 *240:A P[1] 0
4 *240:A *184:C 0
5 *240:A *242:A 0
6 *240:A *79:6 2.93845e-05
*RES
1 B[1] *240:A 47.3214 
*END

*D_NET *7 0.00115977
*CONN
*P B[2] I
*I *241:A I *D sky130_fd_sc_hd__clkbuf_2
*CAP
1 B[2] 0.000514505
2 *241:A 0.000514505
3 *241:A P[1] 0
4 *241:A *201:D 5.79559e-05
5 *241:A *20:12 5.56279e-05
6 *241:A *73:19 0
7 *241:A *79:14 1.71761e-05
8 *2:17 *241:A 0
*RES
1 B[2] *241:A 48.6886 
*END

*D_NET *8 0.000932845
*CONN
*P B[3] I
*I *242:A I *D sky130_fd_sc_hd__clkbuf_2
*CAP
1 B[3] 0.000447854
2 *242:A 0.000447854
3 *242:A *79:6 3.71369e-05
4 *240:A *242:A 0
*RES
1 B[3] *242:A 47.4457 
*END

*D_NET *9 0.000531021
*CONN
*P P[0] O
*I *250:X O *D sky130_fd_sc_hd__buf_2
*CAP
1 P[0] 0.000229431
2 *250:X 0.000229431
3 *239:A P[0] 7.21596e-05
*RES
1 *250:X P[0] 47.1648 
*END

*D_NET *10 0.00102155
*CONN
*P P[1] O
*I *243:X O *D sky130_fd_sc_hd__buf_2
*CAP
1 P[1] 0.000477067
2 *243:X 0.000477067
3 P[1] *184:C 1.14452e-05
4 P[1] *243:A 2.93845e-05
5 P[1] *79:6 2.65879e-05
6 *240:A P[1] 0
7 *241:A P[1] 0
*RES
1 *243:X P[1] 47.57 
*END

*D_NET *11 0.000708807
*CONN
*P P[2] O
*I *244:X O *D sky130_fd_sc_hd__buf_2
*CAP
1 P[2] 0.000249379
2 *244:X 0.000249379
3 P[2] *67:8 4.334e-05
4 *237:A P[2] 8.60937e-05
5 *239:A P[2] 8.06147e-05
*RES
1 *244:X P[2] 48.5734 
*END

*D_NET *12 0.00104348
*CONN
*P P[3] O
*I *245:X O *D sky130_fd_sc_hd__buf_2
*CAP
1 P[3] 0.000100166
2 *245:X 0.00036407
3 *12:10 0.000464235
4 P[3] P[4] 4.17018e-05
5 *12:10 P[4] 4.39278e-05
6 *12:10 *245:A 2.93845e-05
7 *12:10 *68:8 0
*RES
1 *245:X *12:10 44.2868 
2 *12:10 P[3] 8.4144 
*END

*D_NET *13 0.00085651
*CONN
*P P[4] O
*I *246:X O *D sky130_fd_sc_hd__buf_2
*CAP
1 P[4] 0.000350551
2 *246:X 0.000350551
3 P[4] P[5] 0
4 P[4] *69:8 6.97776e-05
5 P[3] P[4] 4.17018e-05
6 *12:10 P[4] 4.39278e-05
*RES
1 *246:X P[4] 49.2716 
*END

*D_NET *14 0.000690871
*CONN
*P P[5] O
*I *247:X O *D sky130_fd_sc_hd__buf_2
*CAP
1 P[5] 0.000345435
2 *247:X 0.000345435
3 P[5] *70:8 0
4 P[4] P[5] 0
*RES
1 *247:X P[5] 48.5734 
*END

*D_NET *15 0.000687334
*CONN
*P P[6] O
*I *248:X O *D sky130_fd_sc_hd__buf_2
*CAP
1 P[6] 0.000343667
2 *248:X 0.000343667
3 *238:A P[6] 0
*RES
1 *248:X P[6] 48.5734 
*END

*D_NET *16 0.000960449
*CONN
*P P[7] O
*I *249:X O *D sky130_fd_sc_hd__buf_2
*CAP
1 P[7] 0.000480224
2 *249:X 0.000480224
*RES
1 *249:X P[7] 48.5021 
*END

*D_NET *19 0.00133566
*CONN
*I *182:A I *D sky130_fd_sc_hd__inv_2
*I *188:C I *D sky130_fd_sc_hd__and4_1
*I *189:A3 I *D sky130_fd_sc_hd__a31o_1
*I *181:Y O *D sky130_fd_sc_hd__nand2_1
*CAP
1 *182:A 9.24098e-05
2 *188:C 0
3 *189:A3 0
4 *181:Y 8.21822e-05
5 *19:17 0.000181805
6 *19:8 0.000171577
7 *182:A *188:D 5.67058e-05
8 *19:8 *188:A 0.000102488
9 *19:8 *188:B 2.4754e-05
10 *19:8 *188:D 2.46832e-05
11 *19:8 *189:B1 5.62333e-05
12 *19:8 *22:52 3.53115e-05
13 *19:8 *77:16 0.000185428
14 *19:17 *188:A 7.42621e-05
15 *19:17 *188:B 0.000230604
16 *19:17 *188:D 1.72202e-05
*RES
1 *181:Y *19:8 26.5007 
2 *19:8 *189:A3 23 
3 *19:8 *19:17 3.50071 
4 *19:17 *188:C 23 
5 *19:17 *182:A 25.0507 
*END

*D_NET *20 0.00324052
*CONN
*I *184:A_N I *D sky130_fd_sc_hd__and3b_1
*I *202:C I *D sky130_fd_sc_hd__nand4_1
*I *205:B1 I *D sky130_fd_sc_hd__a31o_1
*I *183:X O *D sky130_fd_sc_hd__and4_1
*CAP
1 *184:A_N 0
2 *202:C 0
3 *205:B1 9.96007e-05
4 *183:X 0.000127027
5 *20:24 0.00051204
6 *20:12 0.000492997
7 *20:8 0.000207584
8 *205:B1 *202:B 2.4754e-05
9 *205:B1 *205:A1 3.71251e-05
10 *205:B1 *37:12 0.000104183
11 *205:B1 *65:18 6.17437e-06
12 *205:B1 *65:22 4.75206e-05
13 *20:8 *184:C 9.28842e-05
14 *20:12 *184:C 3.22879e-05
15 *20:12 *79:6 9.60811e-05
16 *20:12 *79:14 5.56356e-05
17 *20:24 *186:A 1.12349e-05
18 *20:24 *193:A 4.34876e-05
19 *20:24 *193:B 0.000179473
20 *20:24 *201:D 5.86204e-05
21 *20:24 *202:B 0.000139352
22 *20:24 *22:52 4.05745e-05
23 *20:24 *28:10 1.65191e-05
24 *20:24 *65:14 0.000135037
25 *20:24 *65:16 0.000248308
26 *20:24 *65:18 5.66906e-05
27 *20:24 *78:23 0.000158796
28 *20:24 *79:53 0.000160906
29 *241:A *20:12 5.56279e-05
*RES
1 *183:X *20:8 40.61 
2 *20:8 *20:12 17.5271 
3 *20:12 *20:24 41.2479 
4 *20:24 *205:B1 26.0243 
5 *20:24 *202:C 23 
6 *20:12 *184:A_N 23 
*END

*D_NET *21 0.00597524
*CONN
*I *191:A I *D sky130_fd_sc_hd__xnor2_1
*I *196:A1_N I *D sky130_fd_sc_hd__o2bb2a_1
*I *195:C I *D sky130_fd_sc_hd__and4b_1
*I *197:B2 I *D sky130_fd_sc_hd__a2bb2o_1
*I *185:Y O *D sky130_fd_sc_hd__nand2_1
*CAP
1 *191:A 2.56761e-05
2 *196:A1_N 0
3 *195:C 0.000205253
4 *197:B2 2.44262e-05
5 *185:Y 0.000115729
6 *21:48 0.00035449
7 *21:29 0.000842589
8 *21:14 0.000931542
9 *21:6 0.000765674
10 *191:A *185:A 5.0554e-05
11 *191:A *212:A3 0
12 *195:C *197:B1 0.000225277
13 *195:C *29:22 2.46906e-05
14 *197:B2 *197:B1 5.50049e-05
15 *197:B2 *39:14 9.75779e-05
16 *21:6 *185:A 0.000248259
17 *21:14 *185:A 3.73064e-05
18 *21:14 *203:A 5.50106e-05
19 *21:14 *204:A_N 0.00010018
20 *21:14 *204:B 0.000174996
21 *21:14 *212:A3 0.000221959
22 *21:14 *74:25 5.3304e-05
23 *21:14 *74:34 1.41129e-05
24 *21:14 *76:36 5.50106e-05
25 *21:14 *76:43 0.00018618
26 *21:29 *197:B1 0.000226184
27 *21:48 *197:A1_N 0.000161748
28 *21:48 *23:10 7.5158e-05
29 *21:48 *28:27 0.000276522
30 *21:48 *31:10 0.000145772
31 *21:48 *32:10 5.93746e-05
32 *21:48 *47:16 0.000155613
33 *21:48 *79:77 1.00634e-05
*RES
1 *185:Y *21:6 26.0036 
2 *21:6 *21:14 13.0707 
3 *21:14 *197:B2 24.0979 
4 *21:14 *21:29 4.97143 
5 *21:29 *195:C 26.0036 
6 *21:29 *21:48 38.757 
7 *21:48 *196:A1_N 23 
8 *21:6 *191:A 23.8493 
*END

*D_NET *22 0.00542806
*CONN
*I *188:D I *D sky130_fd_sc_hd__and4_1
*I *189:B1 I *D sky130_fd_sc_hd__a31o_1
*I *197:A1_N I *D sky130_fd_sc_hd__a2bb2o_1
*I *196:B1 I *D sky130_fd_sc_hd__o2bb2a_1
*I *186:X O *D sky130_fd_sc_hd__and2_1
*CAP
1 *188:D 0.000174786
2 *189:B1 4.93261e-05
3 *197:A1_N 0.00025161
4 *196:B1 0.000132522
5 *186:X 9.7354e-05
6 *22:52 0.000830022
7 *22:10 0.000551351
8 *22:6 0.000870482
9 *188:D *188:B 0.000272383
10 *188:D *25:10 0.000187129
11 *196:B1 *28:10 1.12863e-05
12 *196:B1 *65:66 1.14452e-05
13 *197:A1_N *28:27 0.000191276
14 *197:A1_N *79:77 1.03972e-05
15 *22:6 *65:14 4.17736e-05
16 *22:6 *65:16 0.000100693
17 *22:10 *65:66 0.000236082
18 *22:10 *73:19 0.000104228
19 *22:10 *79:64 0
20 *22:52 *181:B 0.000228909
21 *22:52 *183:B 0.000272377
22 *22:52 *193:B 2.09226e-05
23 *22:52 *35:8 6.07611e-06
24 *22:52 *65:14 9.41704e-05
25 *22:52 *73:39 0.000184033
26 *22:52 *73:57 8.48502e-06
27 *22:52 *77:16 9.24795e-06
28 *22:52 *77:39 8.72173e-05
29 *22:52 *78:42 0
30 *22:52 *79:53 0
31 *182:A *188:D 5.67058e-05
32 *19:8 *188:D 2.46832e-05
33 *19:8 *189:B1 5.62333e-05
34 *19:8 *22:52 3.53115e-05
35 *19:17 *188:D 1.72202e-05
36 *20:24 *22:52 4.05745e-05
37 *21:48 *197:A1_N 0.000161748
*RES
1 *186:X *22:6 24.5743 
2 *22:6 *22:10 18.6664 
3 *22:10 *196:B1 40.4443 
4 *22:10 *197:A1_N 42.5364 
5 *22:6 *22:52 42.6564 
6 *22:52 *189:B1 24.4655 
7 *22:52 *188:D 28.3857 
*END

*D_NET *23 0.000968592
*CONN
*I *195:D I *D sky130_fd_sc_hd__and4b_1
*I *187:Y O *D sky130_fd_sc_hd__nand2_1
*CAP
1 *195:D 6.49076e-05
2 *187:Y 0.000150929
3 *23:10 0.000215836
4 *195:D *197:B1 4.21062e-05
5 *195:D *29:22 0.000114463
6 *195:D *39:14 0.000109293
7 *23:10 *31:10 0.000136486
8 *23:10 *32:10 5.94125e-05
9 *21:48 *23:10 7.5158e-05
*RES
1 *187:Y *23:10 40.5271 
2 *23:10 *195:D 40.1802 
*END

*D_NET *24 0.00123852
*CONN
*I *212:B1 I *D sky130_fd_sc_hd__a31o_1
*I *190:A_N I *D sky130_fd_sc_hd__and2b_1
*I *188:X O *D sky130_fd_sc_hd__and4_1
*CAP
1 *212:B1 0
2 *190:A_N 3.72119e-05
3 *188:X 9.59612e-05
4 *24:25 0.00013162
5 *24:12 0.00025601
6 *24:8 0.000183139
7 *190:A_N *76:8 0.00010018
8 *24:8 *25:10 2.96369e-05
9 *24:12 *76:8 0.000169595
10 *24:25 *203:A 0
11 *24:25 *212:A3 0.000127263
12 *24:25 *25:10 9.26098e-05
13 *24:25 *26:8 9.21347e-06
14 *24:25 *47:8 0
15 *24:25 *74:40 6.07611e-06
16 *24:25 *76:36 0
*RES
1 *188:X *24:8 39.5536 
2 *24:8 *24:12 17.0507 
3 *24:12 *190:A_N 24.0979 
4 *24:12 *24:25 33.3143 
5 *24:25 *212:B1 23 
*END

*D_NET *25 0.00157137
*CONN
*I *212:A3 I *D sky130_fd_sc_hd__a31o_1
*I *190:B I *D sky130_fd_sc_hd__and2b_1
*I *189:X O *D sky130_fd_sc_hd__a31o_1
*CAP
1 *212:A3 0.000136448
2 *190:B 0
3 *189:X 0.000244303
4 *25:10 0.000380751
5 *212:A3 *185:A 4.21281e-05
6 *212:A3 *26:8 5.21024e-05
7 *212:A3 *76:43 5.70419e-05
8 *25:10 *203:A 0
9 *188:D *25:10 0.000187129
10 *191:A *212:A3 0
11 *239:A *25:10 0
12 *21:14 *212:A3 0.000221959
13 *24:8 *25:10 2.96369e-05
14 *24:25 *212:A3 0.000127263
15 *24:25 *25:10 9.26098e-05
*RES
1 *189:X *25:10 42.6607 
2 *25:10 *190:B 38 
3 *25:10 *212:A3 42.4536 
*END

*D_NET *26 0.000261873
*CONN
*I *191:B I *D sky130_fd_sc_hd__xnor2_1
*I *190:X O *D sky130_fd_sc_hd__and2b_1
*CAP
1 *191:B 0
2 *190:X 0.000100279
3 *26:8 0.000100279
4 *212:A3 *26:8 5.21024e-05
5 *24:25 *26:8 9.21347e-06
*RES
1 *190:X *26:8 39.9057 
2 *26:8 *191:B 38 
*END

*D_NET *27 0.00317143
*CONN
*I *226:C I *D sky130_fd_sc_hd__and3_1
*I *198:A I *D sky130_fd_sc_hd__or3_1
*I *199:B1 I *D sky130_fd_sc_hd__o21ai_1
*I *192:Y O *D sky130_fd_sc_hd__nand2_1
*CAP
1 *226:C 0
2 *198:A 0.000163394
3 *199:B1 2.40851e-05
4 *192:Y 0
5 *27:42 0.000419616
6 *27:10 0.000531068
7 *27:4 0.000763205
8 *198:A *199:A1 6.23756e-05
9 *198:A *199:A2 5.56279e-05
10 *198:A *34:10 6.82228e-06
11 *199:B1 *198:C 2.24608e-05
12 *199:B1 *31:10 3.70094e-05
13 *199:B1 *32:10 6.48049e-05
14 *27:10 *222:A1 0.000103415
15 *27:10 *32:10 0.000166532
16 *27:10 *56:10 3.70187e-05
17 *27:10 *78:66 3.22051e-05
18 *27:10 *79:77 0
19 *27:42 *226:B 1.19831e-05
20 *27:42 *59:8 1.14452e-05
21 *27:42 *74:64 0.000128533
22 *27:42 *74:78 0
23 *27:42 *74:103 0
24 *27:42 *75:37 1.47784e-05
25 *27:42 *78:66 1.56446e-05
26 *27:42 *79:77 0.00014196
27 *27:42 *79:90 0.000357442
*RES
1 *192:Y *27:4 23 
2 *27:4 *27:10 20.8414 
3 *27:10 *199:B1 38.8493 
4 *27:10 *198:A 41.0243 
5 *27:4 *27:42 38.0164 
6 *27:42 *226:C 23 
*END

*D_NET *28 0.00225925
*CONN
*I *197:A2_N I *D sky130_fd_sc_hd__a2bb2o_1
*I *195:A_N I *D sky130_fd_sc_hd__and4b_1
*I *196:B2 I *D sky130_fd_sc_hd__o2bb2a_1
*I *193:Y O *D sky130_fd_sc_hd__nand2_1
*CAP
1 *197:A2_N 0
2 *195:A_N 9.52346e-05
3 *196:B2 0
4 *193:Y 0.000166919
5 *28:27 0.000316284
6 *28:12 0.000221049
7 *28:10 0.000166919
8 *195:A_N *197:B1 0.000145967
9 *195:A_N *39:14 0.000138315
10 *28:10 *193:A 1.32314e-05
11 *28:10 *65:66 5.28901e-05
12 *28:27 *187:B 0.000143259
13 *28:27 *47:16 8.71668e-05
14 *28:27 *79:77 0.000216415
15 *196:B1 *28:10 1.12863e-05
16 *197:A1_N *28:27 0.000191276
17 *20:24 *28:10 1.65191e-05
18 *21:48 *28:27 0.000276522
*RES
1 *193:Y *28:10 40.5271 
2 *28:10 *28:12 15 
3 *28:12 *196:B2 23 
4 *28:12 *28:27 36.9393 
5 *28:27 *195:A_N 25.6929 
6 *28:27 *197:A2_N 23 
*END

*D_NET *29 0.00364174
*CONN
*I *196:A2_N I *D sky130_fd_sc_hd__o2bb2a_1
*I *197:B1 I *D sky130_fd_sc_hd__a2bb2o_1
*I *195:B I *D sky130_fd_sc_hd__and4b_1
*I *194:X O *D sky130_fd_sc_hd__and2_1
*CAP
1 *196:A2_N 0
2 *197:B1 0.000220155
3 *195:B 0
4 *194:X 0.000459682
5 *29:22 0.000591415
6 *29:6 0.000830942
7 *197:B1 *39:14 5.91079e-05
8 *29:6 *47:16 0.000611972
9 *29:22 *30:10 6.17437e-06
10 *29:22 *36:25 2.76611e-06
11 *29:22 *39:14 2.58327e-05
12 *195:A_N *197:B1 0.000145967
13 *195:C *197:B1 0.000225277
14 *195:C *29:22 2.46906e-05
15 *195:D *197:B1 4.21062e-05
16 *195:D *29:22 0.000114463
17 *197:B2 *197:B1 5.50049e-05
18 *21:29 *197:B1 0.000226184
*RES
1 *194:X *29:6 29.815 
2 *29:6 *29:22 37.6021 
3 *29:22 *195:B 23 
4 *29:22 *197:B1 29.525 
5 *29:6 *196:A2_N 23 
*END

*D_NET *30 0.00166807
*CONN
*I *222:B1 I *D sky130_fd_sc_hd__a31oi_2
*I *199:A1 I *D sky130_fd_sc_hd__o21ai_1
*I *198:B I *D sky130_fd_sc_hd__or3_1
*I *195:X O *D sky130_fd_sc_hd__and4b_1
*CAP
1 *222:B1 0.000208816
2 *199:A1 8.29416e-05
3 *198:B 4.60748e-05
4 *195:X 0.000290152
5 *30:21 0.000356708
6 *30:10 0.000401177
7 *198:B *34:10 5.56336e-05
8 *199:A1 *34:10 0.000147293
9 *222:B1 *198:C 7.4469e-06
10 *222:B1 *33:16 0
11 *222:B1 *34:18 0
12 *30:10 *39:14 3.27749e-06
13 *30:21 *34:18 0
14 *198:A *199:A1 6.23756e-05
15 *29:22 *30:10 6.17437e-06
*RES
1 *195:X *30:10 42.64 
2 *30:10 *198:B 38.6214 
3 *30:10 *30:21 0.849286 
4 *30:21 *199:A1 40.5479 
5 *30:21 *222:B1 41.5836 
*END

*D_NET *31 0.0022933
*CONN
*I *198:C I *D sky130_fd_sc_hd__or3_1
*I *199:A2 I *D sky130_fd_sc_hd__o21ai_1
*I *196:X O *D sky130_fd_sc_hd__o2bb2a_1
*CAP
1 *198:C 0.000169647
2 *199:A2 2.09498e-05
3 *196:X 0.00063135
4 *31:10 0.000821947
5 *199:A2 *34:10 1.80852e-05
6 *31:10 *32:10 0.00020447
7 *31:10 *47:16 2.20472e-05
8 *198:A *199:A2 5.56279e-05
9 *199:B1 *198:C 2.24608e-05
10 *199:B1 *31:10 3.70094e-05
11 *222:B1 *198:C 7.4469e-06
12 *21:48 *31:10 0.000145772
13 *23:10 *31:10 0.000136486
*RES
1 *196:X *31:10 49.3721 
2 *31:10 *199:A2 38.6214 
3 *31:10 *198:C 40.2164 
*END

*D_NET *32 0.00161451
*CONN
*I *222:A3 I *D sky130_fd_sc_hd__a31oi_2
*I *197:X O *D sky130_fd_sc_hd__a2bb2o_1
*CAP
1 *222:A3 1.55776e-05
2 *197:X 0.000430926
3 *32:10 0.000446503
4 *222:A3 *222:A1 5.56356e-05
5 *222:A3 *222:A2 5.56356e-05
6 *32:10 *39:14 5.56356e-05
7 *199:B1 *32:10 6.48049e-05
8 *21:48 *32:10 5.93746e-05
9 *23:10 *32:10 5.94125e-05
10 *27:10 *32:10 0.000166532
11 *31:10 *32:10 0.00020447
*RES
1 *197:X *32:10 47.9221 
2 *32:10 *222:A3 38.6214 
*END

*D_NET *33 0.00106102
*CONN
*I *208:A I *D sky130_fd_sc_hd__and3_1
*I *209:A1 I *D sky130_fd_sc_hd__a21o_1
*I *198:X O *D sky130_fd_sc_hd__or3_1
*CAP
1 *208:A 0
2 *209:A1 0
3 *198:X 0.000184678
4 *33:16 0.000293991
5 *33:8 0.000478669
6 *33:8 *34:10 7.05156e-05
7 *33:16 *34:18 3.31683e-05
8 *222:B1 *33:16 0
*RES
1 *198:X *33:8 26.0243 
2 *33:8 *33:16 33.6043 
3 *33:16 *209:A1 23 
4 *33:8 *208:A 23 
*END

*D_NET *34 0.0016543
*CONN
*I *208:B I *D sky130_fd_sc_hd__and3_1
*I *209:A2 I *D sky130_fd_sc_hd__a21o_1
*I *199:Y O *D sky130_fd_sc_hd__o21ai_1
*CAP
1 *208:B 2.34823e-05
2 *209:A2 0
3 *199:Y 0.000405005
4 *34:18 0.000183705
5 *34:10 0.000612193
6 *34:18 *208:C 1.33401e-05
7 *34:18 *209:B1 5.26101e-05
8 *34:18 *42:10 3.24466e-05
9 *198:A *34:10 6.82228e-06
10 *198:B *34:10 5.56336e-05
11 *199:A1 *34:10 0.000147293
12 *199:A2 *34:10 1.80852e-05
13 *222:B1 *34:18 0
14 *30:21 *34:18 0
15 *33:8 *34:10 7.05156e-05
16 *33:16 *34:18 3.31683e-05
*RES
1 *199:Y *34:10 30.4571 
2 *34:10 *34:18 33.9357 
3 *34:18 *209:A2 23 
4 *34:10 *208:B 23.4971 
*END

*D_NET *35 0.00277929
*CONN
*I *218:A I *D sky130_fd_sc_hd__xnor2_1
*I *227:A1 I *D sky130_fd_sc_hd__a21o_1
*I *200:X O *D sky130_fd_sc_hd__and4_1
*CAP
1 *218:A 0.000217752
2 *227:A1 0
3 *200:X 0.000478174
4 *35:12 0.000515251
5 *35:8 0.000775672
6 *218:A *218:B 0.000167268
7 *218:A *74:8 1.76557e-05
8 *35:8 *204:C 8.23069e-05
9 *35:8 *38:19 0
10 *35:8 *74:10 0
11 *35:8 *74:60 0
12 *35:8 *77:39 4.06512e-05
13 *35:8 *78:42 6.07611e-06
14 *35:8 *78:51 6.33511e-05
15 *35:8 *78:64 0.000355757
16 *35:12 *218:B 5.3304e-05
17 *22:52 *35:8 6.07611e-06
*RES
1 *200:X *35:8 49.0614 
2 *35:8 *35:12 19.9093 
3 *35:12 *227:A1 23 
4 *35:12 *218:A 27.4536 
*END

*D_NET *36 0.00166328
*CONN
*I *205:A3 I *D sky130_fd_sc_hd__a31o_1
*I *202:D I *D sky130_fd_sc_hd__nand4_1
*I *201:Y O *D sky130_fd_sc_hd__nand4_1
*CAP
1 *205:A3 0
2 *202:D 0
3 *201:Y 7.38462e-05
4 *36:25 0.000443543
5 *36:8 0.000517389
6 *36:8 *202:B 8.41115e-05
7 *36:8 *65:37 0
8 *36:8 *65:48 0.000110913
9 *36:25 *202:B 2.96051e-05
10 *36:25 *37:12 0
11 *36:25 *47:16 0.000401106
12 *29:22 *36:25 2.76611e-06
*RES
1 *201:Y *36:8 40.2579 
2 *36:8 *202:D 38 
3 *36:8 *36:25 38.2443 
4 *36:25 *205:A3 38 
*END

*D_NET *37 0.00257364
*CONN
*I *206:A I *D sky130_fd_sc_hd__nand3_1
*I *207:B1_N I *D sky130_fd_sc_hd__a21bo_1
*I *211:A1 I *D sky130_fd_sc_hd__a21o_1
*I *202:Y O *D sky130_fd_sc_hd__nand4_1
*CAP
1 *206:A 0.00019573
2 *207:B1_N 0
3 *211:A1 5.4844e-05
4 *202:Y 0.000468646
5 *37:14 5.4844e-05
6 *37:12 0.000664376
7 *206:A *206:C 0.000157309
8 *206:A *39:37 9.52677e-05
9 *206:A *40:10 3.47781e-05
10 *206:A *42:10 0
11 *206:A *48:10 0
12 *206:A *48:19 0
13 *211:A1 *211:A2 5.50049e-05
14 *211:A1 *211:B1 5.15762e-05
15 *211:A1 *39:20 9.95519e-05
16 *37:12 *205:A1 1.32939e-05
17 *37:12 *213:A 5.65617e-05
18 *37:12 *39:37 1.58805e-05
19 *37:12 *40:10 0.000451788
20 *37:12 *47:26 0
21 *205:B1 *37:12 0.000104183
22 *36:25 *37:12 0
*RES
1 *202:Y *37:12 48.4814 
2 *37:12 *37:14 15 
3 *37:14 *211:A1 24.595 
4 *37:14 *207:B1_N 23 
5 *37:12 *206:A 42.8264 
*END

*D_NET *38 0.00181056
*CONN
*I *218:B I *D sky130_fd_sc_hd__xnor2_1
*I *227:A2 I *D sky130_fd_sc_hd__a21o_1
*I *204:A_N I *D sky130_fd_sc_hd__and3b_1
*I *203:X O *D sky130_fd_sc_hd__and4_1
*CAP
1 *218:B 0.000124693
2 *227:A2 0
3 *204:A_N 7.02254e-05
4 *203:X 0
5 *38:19 0.000315067
6 *38:4 0.000260599
7 *204:A_N *74:34 2.02517e-05
8 *218:B *74:8 0.000313249
9 *38:19 *74:10 0.000332366
10 *38:19 *74:60 5.33597e-05
11 *218:A *218:B 0.000167268
12 *21:14 *204:A_N 0.00010018
13 *35:8 *38:19 0
14 *35:12 *218:B 5.3304e-05
*RES
1 *203:X *38:4 23 
2 *38:4 *204:A_N 24.9471 
3 *38:4 *38:19 35.075 
4 *38:19 *227:A2 23 
5 *38:19 *218:B 27.5986 
*END

*D_NET *39 0.0038245
*CONN
*I *207:A1 I *D sky130_fd_sc_hd__a21bo_1
*I *206:B I *D sky130_fd_sc_hd__nand3_1
*I *211:B1 I *D sky130_fd_sc_hd__a21o_1
*I *204:X O *D sky130_fd_sc_hd__and3b_1
*CAP
1 *207:A1 0
2 *206:B 0
3 *211:B1 9.12352e-05
4 *204:X 0.000935865
5 *39:37 0.000107597
6 *39:20 0.000354762
7 *39:14 0.0010918
8 *211:B1 *233:A1 2.93747e-05
9 *211:B1 *233:A2 2.34437e-05
10 *39:14 *207:A2 5.67058e-05
11 *39:14 *42:10 3.53115e-05
12 *39:20 *207:A2 0.000125496
13 *39:20 *211:A2 2.02872e-05
14 *39:37 *213:A 0.000115022
15 *39:37 *41:8 8.62876e-05
16 *39:37 *48:10 0
17 *195:A_N *39:14 0.000138315
18 *195:D *39:14 0.000109293
19 *197:B1 *39:14 5.91079e-05
20 *197:B2 *39:14 9.75779e-05
21 *206:A *39:37 9.52677e-05
22 *211:A1 *211:B1 5.15762e-05
23 *211:A1 *39:20 9.95519e-05
24 *29:22 *39:14 2.58327e-05
25 *30:10 *39:14 3.27749e-06
26 *32:10 *39:14 5.56356e-05
27 *37:12 *39:37 1.58805e-05
*RES
1 *204:X *39:14 38.5979 
2 *39:14 *39:20 3.64571 
3 *39:20 *211:B1 25.0921 
4 *39:20 *39:37 32.9621 
5 *39:37 *206:B 23 
6 *39:14 *207:A1 23 
*END

*D_NET *40 0.00211264
*CONN
*I *206:C I *D sky130_fd_sc_hd__nand3_1
*I *207:A2 I *D sky130_fd_sc_hd__a21bo_1
*I *211:A2 I *D sky130_fd_sc_hd__a21o_1
*I *205:X O *D sky130_fd_sc_hd__a31o_1
*CAP
1 *206:C 0.000130792
2 *207:A2 6.39808e-05
3 *211:A2 6.20851e-05
4 *205:X 0.000314806
5 *40:12 0.000126066
6 *40:10 0.000445599
7 *206:C *42:10 3.56537e-05
8 *207:A2 *42:10 3.22879e-05
9 *206:A *206:C 0.000157309
10 *206:A *40:10 3.47781e-05
11 *211:A1 *211:A2 5.50049e-05
12 *37:12 *40:10 0.000451788
13 *39:14 *207:A2 5.67058e-05
14 *39:20 *207:A2 0.000125496
15 *39:20 *211:A2 2.02872e-05
*RES
1 *205:X *40:10 44.1729 
2 *40:10 *40:12 15 
3 *40:12 *211:A2 24.0979 
4 *40:12 *207:A2 25.0507 
5 *40:10 *206:C 40.8793 
*END

*D_NET *41 0.0014602
*CONN
*I *233:A1 I *D sky130_fd_sc_hd__a21oi_1
*I *213:A I *D sky130_fd_sc_hd__and3_1
*I *206:Y O *D sky130_fd_sc_hd__nand3_1
*CAP
1 *233:A1 0.000188913
2 *213:A 0.000244075
3 *206:Y 5.42061e-05
4 *41:8 0.000487195
5 *213:A *46:12 2.5415e-05
6 *213:A *47:16 0
7 *213:A *47:26 0.00010018
8 *213:A *48:10 4.06849e-05
9 *233:A1 *233:A2 3.22879e-05
10 *41:8 *48:10 0
11 *211:B1 *233:A1 2.93747e-05
12 *37:12 *213:A 5.65617e-05
13 *39:37 *213:A 0.000115022
14 *39:37 *41:8 8.62876e-05
*RES
1 *206:Y *41:8 39.2014 
2 *41:8 *213:A 43.6136 
3 *41:8 *233:A1 40.5271 
*END

*D_NET *42 0.00151993
*CONN
*I *209:B1 I *D sky130_fd_sc_hd__a21o_1
*I *208:C I *D sky130_fd_sc_hd__and3_1
*I *207:X O *D sky130_fd_sc_hd__a21bo_1
*CAP
1 *209:B1 8.12228e-05
2 *208:C 9.29604e-05
3 *207:X 0.000364776
4 *42:10 0.000538959
5 *208:C *43:10 9.84851e-05
6 *209:B1 *43:10 0.000141879
7 *206:A *42:10 0
8 *206:C *42:10 3.56537e-05
9 *207:A2 *42:10 3.22879e-05
10 *34:18 *208:C 1.33401e-05
11 *34:18 *209:B1 5.26101e-05
12 *34:18 *42:10 3.24466e-05
13 *39:14 *42:10 3.53115e-05
*RES
1 *207:X *42:10 45.0014 
2 *42:10 *208:C 39.885 
3 *42:10 *209:B1 40.2579 
*END

*D_NET *43 0.00356959
*CONN
*I *230:B2 I *D sky130_fd_sc_hd__a221o_1
*I *215:B1 I *D sky130_fd_sc_hd__a21oi_1
*I *210:A_N I *D sky130_fd_sc_hd__and2b_1
*I *208:X O *D sky130_fd_sc_hd__and3_1
*CAP
1 *230:B2 0
2 *215:B1 0.000164386
3 *210:A_N 6.84795e-05
4 *208:X 0.000213871
5 *43:44 0.000704967
6 *43:23 0.00105997
7 *43:10 0.000472967
8 *210:A_N *44:6 0.00010018
9 *215:B1 *48:32 5.2894e-05
10 *215:B1 *48:47 9.00922e-05
11 *215:B1 *49:10 9.7345e-05
12 *43:23 *44:12 0
13 *43:44 *225:B 9.01041e-05
14 *43:44 *230:B1 0.000127576
15 *43:44 *48:47 8.63919e-05
16 *43:44 *49:10 0
17 *43:44 *54:16 0
18 *208:C *43:10 9.84851e-05
19 *209:B1 *43:10 0.000141879
*RES
1 *208:X *43:10 41.8321 
2 *43:10 *210:A_N 39.5743 
3 *43:10 *43:23 18.3143 
4 *43:23 *215:B1 26.9564 
5 *43:23 *43:44 41.4188 
6 *43:44 *230:B2 23 
*END

*D_NET *44 0.000657399
*CONN
*I *210:B I *D sky130_fd_sc_hd__and2b_1
*I *215:A1 I *D sky130_fd_sc_hd__a21oi_1
*I *209:X O *D sky130_fd_sc_hd__a21o_1
*CAP
1 *210:B 0
2 *215:A1 0
3 *209:X 0.000130458
4 *44:12 0.000148151
5 *44:6 0.000278609
6 *44:12 *48:32 0
7 *210:A_N *44:6 0.00010018
8 *43:23 *44:12 0
*RES
1 *209:X *44:6 25.5271 
2 *44:6 *44:12 32.61 
3 *44:12 *215:A1 23 
4 *44:6 *210:B 23 
*END

*D_NET *45 0.000295286
*CONN
*I *214:A I *D sky130_fd_sc_hd__xor2_1
*I *210:X O *D sky130_fd_sc_hd__and2b_1
*CAP
1 *214:A 0.000147643
2 *210:X 0.000147643
*RES
1 *210:X *214:A 48.5479 
*END

*D_NET *46 0.000718542
*CONN
*I *233:A2 I *D sky130_fd_sc_hd__a21oi_1
*I *213:B I *D sky130_fd_sc_hd__and3_1
*I *211:X O *D sky130_fd_sc_hd__a21o_1
*CAP
1 *233:A2 7.18997e-05
2 *213:B 0
3 *211:X 0
4 *46:12 0.000154151
5 *46:4 0.000226051
6 *46:12 *48:10 0.000185294
7 *211:B1 *233:A2 2.34437e-05
8 *213:A *46:12 2.5415e-05
9 *233:A1 *233:A2 3.22879e-05
*RES
1 *211:X *46:4 23 
2 *46:4 *46:12 32.7757 
3 *46:12 *213:B 23 
4 *46:4 *233:A2 24.8229 
*END

*D_NET *47 0.00561734
*CONN
*I *213:C I *D sky130_fd_sc_hd__and3_1
*I *233:B1 I *D sky130_fd_sc_hd__a21oi_1
*I *212:X O *D sky130_fd_sc_hd__a31o_1
*CAP
1 *213:C 0
2 *233:B1 0
3 *212:X 0.000109737
4 *47:26 0.000399561
5 *47:16 0.00146193
6 *47:8 0.0011721
7 *47:8 *203:A 9.98995e-05
8 *47:16 *187:B 0.000229793
9 *47:16 *194:B 0.000250617
10 *47:16 *48:10 2.68769e-05
11 *47:16 *76:8 0.000182832
12 *47:26 *48:10 0.000241108
13 *47:26 *64:8 6.48049e-05
14 *213:A *47:16 0
15 *213:A *47:26 0.00010018
16 *21:48 *47:16 0.000155613
17 *24:25 *47:8 0
18 *28:27 *47:16 8.71668e-05
19 *29:6 *47:16 0.000611972
20 *31:10 *47:16 2.20472e-05
21 *36:25 *47:16 0.000401106
22 *37:12 *47:26 0
*RES
1 *212:X *47:8 40.61 
2 *47:8 *47:16 39.9504 
3 *47:16 *47:26 37.7782 
4 *47:26 *233:B1 23 
5 *47:16 *213:C 23 
*END

*D_NET *48 0.00476755
*CONN
*I *230:A1 I *D sky130_fd_sc_hd__a221o_1
*I *215:A2 I *D sky130_fd_sc_hd__a21oi_1
*I *214:B I *D sky130_fd_sc_hd__xor2_1
*I *234:A I *D sky130_fd_sc_hd__nor2_1
*I *213:X O *D sky130_fd_sc_hd__and3_1
*CAP
1 *230:A1 0
2 *215:A2 4.01155e-05
3 *214:B 0
4 *234:A 0
5 *213:X 0.000328365
6 *48:47 0.000842456
7 *48:32 0.00118237
8 *48:19 0.000607295
9 *48:10 0.00063586
10 *48:10 *64:8 9.52677e-05
11 *48:19 *68:8 8.16356e-05
12 *48:19 *69:8 0
13 *48:47 *54:8 2.98648e-05
14 *48:47 *54:16 1.59071e-05
15 *48:47 *56:10 1.58805e-05
16 *48:47 *56:16 0.000144494
17 *48:47 *56:24 2.46906e-05
18 *206:A *48:10 0
19 *206:A *48:19 0
20 *213:A *48:10 4.06849e-05
21 *215:B1 *48:32 5.2894e-05
22 *215:B1 *48:47 9.00922e-05
23 *39:37 *48:10 0
24 *41:8 *48:10 0
25 *43:44 *48:47 8.63919e-05
26 *44:12 *48:32 0
27 *46:12 *48:10 0.000185294
28 *47:16 *48:10 2.68769e-05
29 *47:26 *48:10 0.000241108
*RES
1 *213:X *48:10 46.555 
2 *48:10 *234:A 38 
3 *48:10 *48:19 6.13143 
4 *48:19 *214:B 38 
5 *48:19 *48:32 20.2614 
6 *48:32 *215:A2 23.8493 
7 *48:32 *48:47 45.4943 
8 *48:47 *230:A1 23 
*END

*D_NET *49 0.000446019
*CONN
*I *225:A I *D sky130_fd_sc_hd__xnor2_1
*I *215:Y O *D sky130_fd_sc_hd__a21oi_1
*CAP
1 *225:A 0
2 *215:Y 0.000174337
3 *49:10 0.000174337
4 *215:B1 *49:10 9.7345e-05
5 *43:44 *49:10 0
*RES
1 *215:Y *49:10 40.9725 
2 *49:10 *225:A 38 
*END

*D_NET *50 0.00358575
*CONN
*I *217:A_N I *D sky130_fd_sc_hd__and3b_1
*I *219:A_N I *D sky130_fd_sc_hd__and4bb_1
*I *232:B1 I *D sky130_fd_sc_hd__a211o_1
*I *216:X O *D sky130_fd_sc_hd__and4_1
*CAP
1 *217:A_N 0
2 *219:A_N 0
3 *232:B1 0
4 *216:X 0.000181685
5 *50:36 0.000186663
6 *50:21 0.000261528
7 *50:14 0.000332946
8 *50:6 0.000589497
9 *50:6 *217:B 5.3304e-05
10 *50:6 *75:12 9.5877e-05
11 *50:6 *75:16 9.41704e-05
12 *50:6 *79:90 7.13587e-05
13 *50:14 *219:D 4.70953e-05
14 *50:14 *231:A 5.50106e-05
15 *50:14 *231:B 2.93845e-05
16 *50:14 *59:8 0
17 *50:14 *60:8 0.000379413
18 *50:14 *61:10 8.16356e-05
19 *50:14 *62:10 0.000166522
20 *50:14 *63:10 6.32792e-05
21 *50:21 *217:B 0.000355023
22 *50:21 *75:12 0.000248678
23 *50:36 *217:B 0.000111716
24 *50:36 *75:12 0.000151601