*SPEF "ieee 1481-1999"
*DESIGN "SARSA_WInd_e9"
*DATE "09:53:08 Friday September 12, 2025"
*VENDOR "The OpenROAD Project"
*PROGRAM "OpenROAD"
*VERSION "edf00dff99f6c40d67a30c0e22a8191c5d2ed9d6"
*DESIGN_FLOW "NAME_SCOPE LOCAL" "PIN_CAP NONE"
*DIVIDER /
*DELIMITER :
*BUS_DELIMITER []
*T_UNIT 1 NS
*C_UNIT 1 PF
*R_UNIT 1 OHM
*L_UNIT 1 HENRY

*NAME_MAP
*1 A[0]
*2 A[1]
*3 B[0]
*4 B[1]
*5 P[0]
*6 P[1]
*7 P[2]
*8 P[3]
*11 net1
*12 net2
*13 net3
*14 net4
*15 net5
*16 net6
*17 net7
*18 net8
*19 FILLER_0_15
*20 FILLER_0_27
*21 FILLER_0_29
*22 FILLER_0_3
*23 FILLER_0_41
*24 FILLER_0_53
*25 FILLER_0_57
*26 FILLER_0_69
*27 FILLER_1_15
*28 FILLER_1_27
*29 FILLER_1_3
*30 FILLER_1_39
*31 FILLER_1_51
*32 FILLER_1_55
*33 FILLER_1_57
*34 FILLER_1_69
*35 FILLER_2_18
*36 FILLER_2_26
*37 FILLER_2_29
*38 FILLER_2_41
*39 FILLER_2_53
*40 FILLER_2_6
*41 FILLER_2_65
*42 FILLER_2_77
*43 FILLER_3_15
*44 FILLER_3_27
*45 FILLER_3_3
*46 FILLER_3_39
*47 FILLER_3_51
*48 FILLER_3_55
*49 FILLER_3_57
*50 FILLER_3_69
*51 FILLER_4_11
*52 FILLER_4_17
*53 FILLER_4_21
*54 FILLER_4_29
*55 FILLER_4_39
*56 FILLER_4_51
*57 FILLER_4_63
*58 FILLER_4_7
*59 FILLER_4_75
*60 FILLER_5_18
*61 FILLER_5_30
*62 FILLER_5_38
*63 FILLER_5_50
*64 FILLER_5_57
*65 FILLER_5_6
*66 FILLER_5_69
*67 FILLER_6_19
*68 FILLER_6_27
*69 FILLER_6_29
*70 FILLER_6_41
*71 FILLER_6_53
*72 FILLER_6_65
*73 FILLER_6_7
*74 FILLER_6_77
*75 FILLER_7_18
*76 FILLER_7_30
*77 FILLER_7_42
*78 FILLER_7_54
*79 FILLER_7_57
*80 FILLER_7_6
*81 FILLER_7_69
*82 FILLER_8_15
*83 FILLER_8_27
*84 FILLER_8_29
*85 FILLER_8_3
*86 FILLER_8_41
*87 FILLER_8_53
*88 FILLER_8_65
*89 FILLER_8_77
*90 FILLER_9_15
*91 FILLER_9_27
*92 FILLER_9_29
*93 FILLER_9_3
*94 FILLER_9_41
*95 FILLER_9_53
*96 FILLER_9_57
*97 FILLER_9_69
*98 PHY_EDGE_ROW_0_Left_10
*99 PHY_EDGE_ROW_0_Right_0
*100 PHY_EDGE_ROW_1_Left_11
*101 PHY_EDGE_ROW_1_Right_1
*102 PHY_EDGE_ROW_2_Left_12
*103 PHY_EDGE_ROW_2_Right_2
*104 PHY_EDGE_ROW_3_Left_13
*105 PHY_EDGE_ROW_3_Right_3
*106 PHY_EDGE_ROW_4_Left_14
*107 PHY_EDGE_ROW_4_Right_4
*108 PHY_EDGE_ROW_5_Left_15
*109 PHY_EDGE_ROW_5_Right_5
*110 PHY_EDGE_ROW_6_Left_16
*111 PHY_EDGE_ROW_6_Right_6
*112 PHY_EDGE_ROW_7_Left_17
*113 PHY_EDGE_ROW_7_Right_7
*114 PHY_EDGE_ROW_8_Left_18
*115 PHY_EDGE_ROW_8_Right_8
*116 PHY_EDGE_ROW_9_Left_19
*117 PHY_EDGE_ROW_9_Right_9
*118 TAP_TAPCELL_ROW_0_20
*119 TAP_TAPCELL_ROW_0_21
*120 TAP_TAPCELL_ROW_1_22
*121 TAP_TAPCELL_ROW_2_23
*122 TAP_TAPCELL_ROW_3_24
*123 TAP_TAPCELL_ROW_4_25
*124 TAP_TAPCELL_ROW_5_26
*125 TAP_TAPCELL_ROW_6_27
*126 TAP_TAPCELL_ROW_7_28
*127 TAP_TAPCELL_ROW_8_29
*128 TAP_TAPCELL_ROW_9_30
*129 TAP_TAPCELL_ROW_9_31
*130 _0_
*131 _1_
*132 _2_
*133 _3_
*134 input1
*135 input2
*136 input3
*137 input4
*138 output5
*139 output6
*140 output7
*141 output8

*PORTS
A[0] I
A[1] I
B[0] I
B[1] I
P[0] O
P[1] O
P[2] O
P[3] O

*D_NET *1 0.000572527
*CONN
*P A[0] I
*I *134:A I *D sky130_fd_sc_hd__clkbuf_1
*CAP
1 A[0] 0.000272764
2 *134:A 0.000272764
3 *134:A P[1] 2.69997e-05
*RES
1 A[0] *134:A 7.0893 
*END

*D_NET *2 0.000469751
*CONN
*P A[1] I
*I *135:A I *D sky130_fd_sc_hd__buf_1
*CAP
1 A[1] 0.000186352
2 *135:A 0.000186352
3 *135:A P[3] 8.53361e-05
4 *135:A *12:12 1.17114e-05
*RES
1 A[1] *135:A 5.35677 
*END

*D_NET *3 0.000623243
*CONN
*P B[0] I
*I *136:A I *D sky130_fd_sc_hd__clkbuf_1
*CAP
1 B[0] 0.00028255
2 *136:A 0.00028255
3 *136:A P[0] 2.85068e-05
4 *136:A P[1] 2.96366e-05
*RES
1 B[0] *136:A 7.5993 
*END

*D_NET *4 0.000532809
*CONN
*P B[1] I
*I *137:A I *D sky130_fd_sc_hd__clkbuf_1
*CAP
1 B[1] 0.000255159
2 *137:A 0.000255159
3 *137:A P[0] 2.24901e-05
*RES
1 B[1] *137:A 6.8343 
*END

*D_NET *5 0.000491235
*CONN
*P P[0] O
*I *138:X O *D sky130_fd_sc_hd__buf_2
*CAP
1 P[0] 0.000220119
2 *138:X 0.000220119
3 *136:A P[0] 2.85068e-05
4 *137:A P[0] 2.24901e-05
*RES
1 *138:X P[0] 4.90503 
*END

*D_NET *6 0.000719351
*CONN
*P P[1] O
*I *139:X O *D sky130_fd_sc_hd__buf_2
*CAP
1 P[1] 0.000331357
2 *139:X 0.000331357
3 *134:A P[1] 2.69997e-05
4 *136:A P[1] 2.96366e-05
*RES
1 *139:X P[1] 7.6893 
*END

*D_NET *7 0.000584515
*CONN
*P P[2] O
*I *140:X O *D sky130_fd_sc_hd__buf_2
*CAP
1 P[2] 0.000245984
2 *140:X 0.000245984
3 P[2] P[3] 9.25475e-05
*RES
1 *140:X P[2] 5.92503 
*END

*D_NET *8 0.000540393
*CONN
*P P[3] O
*I *141:X O *D sky130_fd_sc_hd__buf_2
*CAP
1 P[3] 0.000176989
2 *141:X 0.000176989
3 P[3] *12:12 8.53113e-06
4 P[2] P[3] 9.25475e-05
5 *135:A P[3] 8.53361e-05
*RES
1 *141:X P[3] 5.41503 
*END

*D_NET *11 0.00101837
*CONN
*I *130:B I *D sky130_fd_sc_hd__and2_1
*I *134:X O *D sky130_fd_sc_hd__clkbuf_1
*CAP
1 *130:B 0.000499699
2 *134:X 0.000499699
3 *130:B *133:C 0
4 *130:B *15:14 1.89685e-05
*RES
1 *134:X *130:B 13.83 
*END

*D_NET *12 0.00422825
*CONN
*I *133:B I *D sky130_fd_sc_hd__and3b_1
*I *132:A1 I *D sky130_fd_sc_hd__a21boi_1
*I *131:B I *D sky130_fd_sc_hd__and3_1
*I *135:X O *D sky130_fd_sc_hd__buf_1
*CAP
1 *133:B 0
2 *132:A1 0.00032651
3 *131:B 0.000139012
4 *135:X 0.00121307
5 *12:27 0.000482013
6 *12:12 0.00150758
7 *131:B *131:C 1.86939e-06
8 *131:B *141:A 9.84913e-06
9 *132:A1 *133:A_N 8.52228e-05
10 *132:A1 *133:C 1.72489e-05
11 *132:A1 *15:14 2.28636e-05
12 *12:12 *141:A 0.000352802
13 *12:27 *140:A 4.99619e-05
14 P[3] *12:12 8.53113e-06
15 *135:A *12:12 1.17114e-05
*RES
1 *135:X *12:12 21.305 
2 *12:12 *131:B 3.085 
3 *12:12 *12:27 6.01 
4 *12:27 *132:A1 6.025 
5 *12:27 *133:B 1.6 
*END

*D_NET *13 0.000649073
*CONN
*I *130:A I *D sky130_fd_sc_hd__and2_1
*I *136:X O *D sky130_fd_sc_hd__clkbuf_1
*CAP
1 *130:A 0.000324537
2 *136:X 0.000324537
3 *130:A *15:14 0
4 *130:A *15:28 0
*RES
1 *136:X *130:A 11.1 
*END

*D_NET *14 0.003698
*CONN
*I *131:A I *D sky130_fd_sc_hd__and3_1
*I *132:B1_N I *D sky130_fd_sc_hd__a21boi_1
*I *133:C I *D sky130_fd_sc_hd__and3b_1
*I *137:X O *D sky130_fd_sc_hd__clkbuf_1
*CAP
1 *131:A 0.000147654
2 *132:B1_N 0
3 *133:C 0.000407625
4 *137:X 0.000750545
5 *14:12 0.000569172
6 *14:10 0.00105975
7 *131:A *131:C 0.000430026
8 *133:C *133:A_N 0.000114476
9 *133:C *15:14 0.000201508
10 *14:10 *138:A 0
11 *14:10 *15:28 0
12 *14:12 *15:14 0
13 *14:12 *15:28 0
14 *130:B *133:C 0
15 *132:A1 *133:C 1.72489e-05
*RES
1 *137:X *14:10 12.735 
2 *14:10 *14:12 2.655 
3 *14:12 *133:C 9.15 
4 *14:12 *132:B1_N 3.6 
5 *14:10 *131:A 7.5 
*END

*D_NET *15 0.00360731
*CONN
*I *138:A I *D sky130_fd_sc_hd__buf_2
*I *131:C I *D sky130_fd_sc_hd__and3_1
*I *133:A_N I *D sky130_fd_sc_hd__and3b_1
*I *132:A2 I *D sky130_fd_sc_hd__a21boi_1
*I *130:X O *D sky130_fd_sc_hd__and2_1
*CAP
1 *138:A 0.000331345
2 *131:C 0.000537844
3 *133:A_N 3.67677e-05
4 *132:A2 0
5 *130:X 0
6 *15:28 0.000998427
7 *15:14 0.000275326
8 *15:6 0.000367798
9 *15:14 *139:A 0.000184866
10 *130:A *15:14 0
11 *130:A *15:28 0
12 *130:B *15:14 1.89685e-05
13 *131:A *131:C 0.000430026
14 *131:B *131:C 1.86939e-06
15 *132:A1 *133:A_N 8.52228e-05
16 *132:A1 *15:14 2.28636e-05
17 *133:C *133:A_N 0.000114476
18 *133:C *15:14 0.000201508
19 *14:10 *138:A 0
20 *14:10 *15:28 0
21 *14:12 *15:14 0
22 *14:12 *15:28 0
*RES
1 *130:X *15:6 3.6 
2 *15:6 *15:14 7.385 
3 *15:14 *132:A2 1.6 
4 *15:14 *133:A_N 3.43 
5 *15:6 *15:28 2.145 
6 *15:28 *131:C 10.32 
7 *15:28 *138:A 8.535 
*END

*D_NET *16 0.000967871
*CONN
*I *139:A I *D sky130_fd_sc_hd__buf_2
*I *132:Y O *D sky130_fd_sc_hd__a21boi_1
*CAP
1 *139:A 0.000391502
2 *132:Y 0.000391502
3 *15:14 *139:A 0.000184866
*RES
1 *132:Y *139:A 9.98 
*END

*D_NET *17 0.00199345
*CONN
*I *140:A I *D sky130_fd_sc_hd__buf_2
*I *133:X O *D sky130_fd_sc_hd__and3b_1
*CAP
1 *140:A 0.000971744
2 *133:X 0.000971744
3 *12:27 *140:A 4.99619e-05
*RES
1 *133:X *140:A 17.48 
*END

*D_NET *18 0.00241227
*CONN
*I *141:A I *D sky130_fd_sc_hd__buf_2
*I *131:X O *D sky130_fd_sc_hd__and3_1
*CAP
1 *141:A 0.00102481
2 *131:X 0.00102481
3 *131:B *141:A 9.84913e-06
4 *12:12 *141:A 0.000352802
*RES
1 *131:X *141:A 17.825 
*END
