*SPEF "ieee 1481-1999"
*DESIGN "e9_SARSA_nSteps_INDEPENDIENTES"
*DATE "11:58:33 Friday September 12, 2025"
*VENDOR "The OpenROAD Project"
*PROGRAM "OpenROAD"
*VERSION "edf00dff99f6c40d67a30c0e22a8191c5d2ed9d6"
*DESIGN_FLOW "NAME_SCOPE LOCAL" "PIN_CAP NONE"
*DIVIDER /
*DELIMITER :
*BUS_DELIMITER []
*T_UNIT 1 NS
*C_UNIT 1 PF
*R_UNIT 1 OHM
*L_UNIT 1 HENRY

*NAME_MAP
*1 A[0]
*2 A[1]
*3 B[0]
*4 B[1]
*5 P[0]
*6 P[1]
*7 P[2]
*8 P[3]
*11 _0_
*12 _1_
*13 _2_
*14 net1
*15 net2
*16 net3
*17 net4
*18 net5
*19 net6
*20 net7
*21 net8
*22 FILLER_0_15
*23 FILLER_0_23
*24 FILLER_0_27
*25 FILLER_0_29
*26 FILLER_0_3
*27 FILLER_0_34
*28 FILLER_0_41
*29 FILLER_0_49
*30 FILLER_0_55
*31 FILLER_0_57
*32 FILLER_0_69
*33 FILLER_1_15
*34 FILLER_1_27
*35 FILLER_1_3
*36 FILLER_1_39
*37 FILLER_1_47
*38 FILLER_1_55
*39 FILLER_1_57
*40 FILLER_1_69
*41 FILLER_2_15
*42 FILLER_2_27
*43 FILLER_2_29
*44 FILLER_2_3
*45 FILLER_2_37
*46 FILLER_2_44
*47 FILLER_2_54
*48 FILLER_2_58
*49 FILLER_2_73
*50 FILLER_3_15
*51 FILLER_3_27
*52 FILLER_3_3
*53 FILLER_3_39
*54 FILLER_3_51
*55 FILLER_3_55
*56 FILLER_3_57
*57 FILLER_3_65
*58 FILLER_3_72
*59 FILLER_3_80
*60 FILLER_4_15
*61 FILLER_4_27
*62 FILLER_4_29
*63 FILLER_4_3
*64 FILLER_4_41
*65 FILLER_4_53
*66 FILLER_4_65
*67 FILLER_4_77
*68 FILLER_5_15
*69 FILLER_5_27
*70 FILLER_5_3
*71 FILLER_5_39
*72 FILLER_5_51
*73 FILLER_5_55
*74 FILLER_5_57
*75 FILLER_5_69
*76 FILLER_6_15
*77 FILLER_6_27
*78 FILLER_6_29
*79 FILLER_6_3
*80 FILLER_6_41
*81 FILLER_6_53
*82 FILLER_6_65
*83 FILLER_7_15
*84 FILLER_7_27
*85 FILLER_7_3
*86 FILLER_7_39
*87 FILLER_7_51
*88 FILLER_7_55
*89 FILLER_7_57
*90 FILLER_7_69
*91 FILLER_8_15
*92 FILLER_8_27
*93 FILLER_8_29
*94 FILLER_8_3
*95 FILLER_8_41
*96 FILLER_8_53
*97 FILLER_8_65
*98 FILLER_8_77
*99 FILLER_9_15
*100 FILLER_9_27
*101 FILLER_9_29
*102 FILLER_9_3
*103 FILLER_9_41
*104 FILLER_9_53
*105 FILLER_9_57
*106 FILLER_9_69
*107 PHY_EDGE_ROW_0_Left_10
*108 PHY_EDGE_ROW_0_Right_0
*109 PHY_EDGE_ROW_1_Left_11
*110 PHY_EDGE_ROW_1_Right_1
*111 PHY_EDGE_ROW_2_Left_12
*112 PHY_EDGE_ROW_2_Right_2
*113 PHY_EDGE_ROW_3_Left_13
*114 PHY_EDGE_ROW_3_Right_3
*115 PHY_EDGE_ROW_4_Left_14
*116 PHY_EDGE_ROW_4_Right_4
*117 PHY_EDGE_ROW_5_Left_15
*118 PHY_EDGE_ROW_5_Right_5
*119 PHY_EDGE_ROW_6_Left_16
*120 PHY_EDGE_ROW_6_Right_6
*121 PHY_EDGE_ROW_7_Left_17
*122 PHY_EDGE_ROW_7_Right_7
*123 PHY_EDGE_ROW_8_Left_18
*124 PHY_EDGE_ROW_8_Right_8
*125 PHY_EDGE_ROW_9_Left_19
*126 PHY_EDGE_ROW_9_Right_9
*127 TAP_TAPCELL_ROW_0_20
*128 TAP_TAPCELL_ROW_0_21
*129 TAP_TAPCELL_ROW_1_22
*130 TAP_TAPCELL_ROW_2_23
*131 TAP_TAPCELL_ROW_3_24
*132 TAP_TAPCELL_ROW_4_25
*133 TAP_TAPCELL_ROW_5_26
*134 TAP_TAPCELL_ROW_6_27
*135 TAP_TAPCELL_ROW_7_28
*136 TAP_TAPCELL_ROW_8_29
*137 TAP_TAPCELL_ROW_9_30
*138 TAP_TAPCELL_ROW_9_31
*139 _3_
*140 _4_
*141 _5_
*142 _6_
*143 _7_
*144 _8_
*145 _9_
*146 input1
*147 input2
*148 input3
*149 input4
*150 output5
*151 output6
*152 output7
*153 output8

*PORTS
A[0] I
A[1] I
B[0] I
B[1] I
P[0] O
P[1] O
P[2] O
P[3] O

*D_NET *1 0.00084331
*CONN
*P A[0] I
*I *146:A I *D sky130_fd_sc_hd__buf_1
*CAP
1 A[0] 0.000421655
2 *146:A 0.000421655
3 *146:A *147:A 0
*RES
1 A[0] *146:A 21.8357 
*END

*D_NET *2 0.000852951
*CONN
*P A[1] I
*I *147:A I *D sky130_fd_sc_hd__buf_1
*CAP
1 A[1] 0.00041202
2 *147:A 0.00041202
3 *147:A *148:A 0
4 *147:A *14:14 2.89114e-05
5 *146:A *147:A 0
*RES
1 A[1] *147:A 21.8357 
*END

*D_NET *3 0.000854974
*CONN
*P B[0] I
*I *148:A I *D sky130_fd_sc_hd__buf_1
*CAP
1 B[0] 0.000413031
2 *148:A 0.000413031
3 *148:A P[2] 0
4 *148:A *14:14 2.89114e-05
5 *147:A *148:A 0
*RES
1 B[0] *148:A 21.8357 
*END

*D_NET *4 0.000847077
*CONN
*P B[1] I
*I *149:A I *D sky130_fd_sc_hd__buf_1
*CAP
1 B[1] 0.000421472
2 *149:A 0.000421472
3 *149:A P[2] 0
4 *149:A *152:A 4.1331e-06
*RES
1 B[1] *149:A 21.8357 
*END

*D_NET *5 0.000488787
*CONN
*P P[0] O
*I *150:X O *D sky130_fd_sc_hd__buf_2
*CAP
1 P[0] 0.000197956
2 *150:X 0.000197956
3 P[0] P[1] 9.28756e-05
4 P[0] *150:A 0
*RES
1 *150:X P[0] 18.1949 
*END

*D_NET *6 0.000571853
*CONN
*P P[1] O
*I *151:X O *D sky130_fd_sc_hd__buf_2
*CAP
1 P[1] 0.000222218
2 *151:X 0.000222218
3 P[1] P[3] 0
4 P[1] *151:A 3.454e-05
5 P[0] P[1] 9.28756e-05
*RES
1 *151:X P[1] 18.8021 
*END

*D_NET *7 0.000862499
*CONN
*P P[2] O
*I *152:X O *D sky130_fd_sc_hd__buf_2
*CAP
1 P[2] 0.00043125
2 *152:X 0.00043125
3 *148:A P[2] 0
4 *149:A P[2] 0
*RES
1 *152:X P[2] 21.8893 
*END

*D_NET *8 0.000536063
*CONN
*P P[3] O
*I *153:X O *D sky130_fd_sc_hd__buf_2
*CAP
1 P[3] 0.000268032
2 *153:X 0.000268032
3 P[1] P[3] 0
*RES
1 *153:X P[3] 18.4985 
*END

*D_NET *11 0.000593732
*CONN
*I *143:A2 I *D sky130_fd_sc_hd__o211a_1
*I *140:Y O *D sky130_fd_sc_hd__inv_2
*CAP
1 *143:A2 8.19754e-05
2 *140:Y 8.19754e-05
3 *143:A2 *140:A 1.74352e-05
4 *143:A2 *142:A 0.00014183
5 *143:A2 *143:B1 3.57366e-05
6 *143:A2 *151:A 1.32552e-05
7 *143:A2 *153:A 0.000186669
8 *143:A2 *13:8 3.4855e-05
*RES
1 *140:Y *143:A2 21.6179 
*END

*D_NET *12 0.000663865
*CONN
*I *145:B I *D sky130_fd_sc_hd__and3b_1
*I *144:X O *D sky130_fd_sc_hd__or3_1
*CAP
1 *145:B 0.000244055
2 *144:X 0.000244055
3 *145:B *145:A_N 1.83053e-05
4 *145:B *152:A 2.38651e-06
5 *145:B *15:16 9.78079e-05
6 *145:B *21:10 5.72546e-05
*RES
1 *144:X *145:B 31.6357 
*END

*D_NET *13 0.00120733
*CONN
*I *142:A I *D sky130_fd_sc_hd__or2_1
*I *143:A1 I *D sky130_fd_sc_hd__o211a_1
*I *139:Y O *D sky130_fd_sc_hd__inv_2
*CAP
1 *142:A 0.000172398
2 *143:A1 0
3 *139:Y 6.31096e-05
4 *13:8 0.000235507
5 *142:A *140:A 6.57914e-05
6 *142:A *142:B 0.000120655
7 *142:A *150:A 5.80706e-06
8 *142:A *151:A 0
9 *13:8 *140:A 0.000276211
10 *13:8 *143:B1 3.48705e-05
11 *13:8 *143:C1 5.62995e-05
12 *143:A2 *142:A 0.00014183
13 *143:A2 *13:8 3.4855e-05
*RES
1 *139:Y *13:8 12.3179 
2 *13:8 *143:A1 9.3 
3 *13:8 *142:A 22.5143 
*END

*D_NET *14 0.00433232
*CONN
*I *140:A I *D sky130_fd_sc_hd__inv_2
*I *141:D I *D sky130_fd_sc_hd__and4_1
*I *144:C I *D sky130_fd_sc_hd__or3_1
*I *146:X O *D sky130_fd_sc_hd__buf_1
*CAP
1 *140:A 0.000518354
2 *141:D 0.000158089
3 *144:C 0
4 *146:X 0.000467964
5 *14:23 0.000839998
6 *14:14 0.000631519
7 *140:A *139:A 0.000126639
8 *140:A *141:A 2.89016e-05
9 *140:A *143:C1 4.16929e-05
10 *140:A *151:A 5.52302e-05
11 *140:A *153:A 0
12 *140:A *16:17 9.16074e-05
13 *141:D *15:16 5.52302e-05
14 *141:D *21:10 1.02504e-05
15 *14:14 *144:B 4.80729e-05
16 *14:14 *15:10 0.000501173
17 *14:14 *15:16 1.24368e-05
18 *14:23 *15:16 1.38323e-05
19 *14:23 *16:17 0.00031407
20 *142:A *140:A 6.57914e-05
21 *143:A2 *140:A 1.74352e-05
22 *147:A *14:14 2.89114e-05
23 *148:A *14:14 2.89114e-05
24 *13:8 *140:A 0.000276211
*RES
1 *146:X *14:14 28.2643 
2 *14:14 *144:C 9.3 
3 *14:14 *14:23 3.83929 
4 *14:23 *141:D 20.5321 
5 *14:23 *140:A 20.0321 
*END

*D_NET *15 0.00412664
*CONN
*I *144:B I *D sky130_fd_sc_hd__or3_1
*I *141:C I *D sky130_fd_sc_hd__and4_1
*I *143:B1 I *D sky130_fd_sc_hd__o211a_1
*I *147:X O *D sky130_fd_sc_hd__buf_1
*CAP
1 *144:B 0.000100102
2 *141:C 0
3 *143:B1 0.000436437
4 *147:X 0.00026358
5 *15:16 0.000643774
6 *15:10 0.000571019
7 *143:B1 *143:C1 0.000522526
8 *143:B1 *16:17 1.69961e-05
9 *144:B *16:10 5.58941e-05
10 *15:10 *16:10 0.000272665
11 *15:16 *16:17 0.000444489
12 *141:D *15:16 5.52302e-05
13 *143:A2 *143:B1 3.57366e-05
14 *145:B *15:16 9.78079e-05
15 *13:8 *143:B1 3.48705e-05
16 *14:14 *144:B 4.80729e-05
17 *14:14 *15:10 0.000501173
18 *14:14 *15:16 1.24368e-05
19 *14:23 *15:16 1.38323e-05
*RES
1 *147:X *15:10 19.8536 
2 *15:10 *15:16 9.57143 
3 *15:16 *143:B1 16.3357 
4 *15:16 *141:C 9.3 
5 *15:10 *144:B 15.4429 
*END

*D_NET *16 0.00280236
*CONN
*I *141:B I *D sky130_fd_sc_hd__and4_1
*I *143:C1 I *D sky130_fd_sc_hd__o211a_1
*I *144:A I *D sky130_fd_sc_hd__or3_1
*I *148:X O *D sky130_fd_sc_hd__buf_1
*CAP
1 *141:B 0
2 *143:C1 0.000104851
3 *144:A 0
4 *148:X 0.000168791
5 *16:17 0.000187636
6 *16:10 0.000251576
7 *143:C1 *139:A 0.000218045
8 *143:C1 *141:A 5.52238e-05
9 *140:A *143:C1 4.16929e-05
10 *140:A *16:17 9.16074e-05
11 *143:B1 *143:C1 0.000522526
12 *143:B1 *16:17 1.69961e-05
13 *144:B *16:10 5.58941e-05
14 *13:8 *143:C1 5.62995e-05
15 *14:23 *16:17 0.00031407
16 *15:10 *16:10 0.000272665
17 *15:16 *16:17 0.000444489
*RES
1 *148:X *16:10 22.3714 
2 *16:10 *144:A 9.3 
3 *16:10 *16:17 4.64286 
4 *16:17 *143:C1 14.8 
5 *16:17 *141:B 9.3 
*END

*D_NET *17 0.00192628
*CONN
*I *139:A I *D sky130_fd_sc_hd__inv_2
*I *141:A I *D sky130_fd_sc_hd__and4_1
*I *145:C I *D sky130_fd_sc_hd__and3b_1
*I *149:X O *D sky130_fd_sc_hd__buf_1
*CAP
1 *139:A 3.55822e-05
2 *141:A 1.40568e-05
3 *145:C 0.000208787
4 *149:X 0.000137653
5 *17:21 0.000174389
6 *17:8 0.000471191
7 *145:C *145:A_N 0.000139632
8 *145:C *21:23 0.000316184
9 *17:8 *152:A 0
10 *17:21 *21:10 0
11 *140:A *139:A 0.000126639
12 *140:A *141:A 2.89016e-05
13 *143:C1 *139:A 0.000218045
14 *143:C1 *141:A 5.52238e-05
*RES
1 *149:X *17:8 16.05 
2 *17:8 *145:C 18.0321 
3 *17:8 *17:21 6.44643 
4 *17:21 *141:A 9.83571 
5 *17:21 *139:A 11.4786 
*END

*D_NET *18 0.00110249
*CONN
*I *150:A I *D sky130_fd_sc_hd__buf_2
*I *142:X O *D sky130_fd_sc_hd__or2_1
*CAP
1 *150:A 0.000548344
2 *142:X 0.000548344
3 *150:A *151:A 0
4 P[0] *150:A 0
5 *142:A *150:A 5.80706e-06
*RES
1 *142:X *150:A 37.2964 
*END

*D_NET *19 0.00139291
*CONN
*I *151:A I *D sky130_fd_sc_hd__buf_2
*I *143:X O *D sky130_fd_sc_hd__o211a_1
*CAP
1 *151:A 0.000629347
2 *143:X 0.000629347
3 *151:A *153:A 3.11905e-05
4 P[1] *151:A 3.454e-05
5 *140:A *151:A 5.52302e-05
6 *142:A *151:A 0
7 *143:A2 *151:A 1.32552e-05
8 *150:A *151:A 0
*RES
1 *143:X *151:A 37.8143 
*END

*D_NET *20 0.000412284
*CONN
*I *152:A I *D sky130_fd_sc_hd__buf_2
*I *145:X O *D sky130_fd_sc_hd__and3b_1
*CAP
1 *152:A 0.000184525
2 *145:X 0.000184525
3 *152:A *145:A_N 2.27416e-05
4 *152:A *21:23 1.39726e-05
5 *145:B *152:A 2.38651e-06
6 *149:A *152:A 4.1331e-06
7 *17:8 *152:A 0
*RES
1 *145:X *152:A 30.4929 
*END

*D_NET *21 0.00352011
*CONN
*I *142:B I *D sky130_fd_sc_hd__or2_1
*I *153:A I *D sky130_fd_sc_hd__buf_2
*I *145:A_N I *D sky130_fd_sc_hd__and3b_1
*I *141:X O *D sky130_fd_sc_hd__and4_1
*CAP
1 *142:B 0.000189678
2 *153:A 0.000353546
3 *145:A_N 0.00014216
4 *141:X 8.48123e-05
5 *21:23 0.00107465
6 *21:10 0.000758402
7 *140:A *153:A 0
8 *141:D *21:10 1.02504e-05
9 *142:A *142:B 0.000120655
10 *143:A2 *153:A 0.000186669
11 *145:B *145:A_N 1.83053e-05
12 *145:B *21:10 5.72546e-05
13 *145:C *145:A_N 0.000139632
14 *145:C *21:23 0.000316184
15 *151:A *153:A 3.11905e-05
16 *152:A *145:A_N 2.27416e-05
17 *152:A *21:23 1.39726e-05
18 *17:21 *21:10 0
*RES
1 *141:X *21:10 19.9429 
2 *21:10 *145:A_N 12.3 
3 *21:10 *21:23 14.4821 
4 *21:23 *153:A 18.7643 
5 *21:23 *142:B 17.2643 
*END
