*SPEF "ieee 1481-1999"
*DESIGN "mult4_SARSA_RUIDO_e9_SARSA_RUIDO_e9_SARSA_RUIDO_e9_SARSA_RUIDO_e9"
*DATE "14:25:41 Tuesday September 16, 2025"
*VENDOR "The OpenROAD Project"
*PROGRAM "OpenROAD"
*VERSION "edf00dff99f6c40d67a30c0e22a8191c5d2ed9d6"
*DESIGN_FLOW "NAME_SCOPE LOCAL" "PIN_CAP NONE"
*DIVIDER /
*DELIMITER :
*BUS_DELIMITER []
*T_UNIT 1 NS
*C_UNIT 1 PF
*R_UNIT 1 OHM
*L_UNIT 1 HENRY

*NAME_MAP
*1 A[0]
*2 A[1]
*3 A[2]
*4 A[3]
*5 B[0]
*6 B[1]
*7 B[2]
*8 B[3]
*9 P[0]
*10 P[1]
*11 P[2]
*12 P[3]
*13 P[4]
*14 P[5]
*15 P[6]
*16 P[7]
*19 _00_
*20 _01_
*21 _02_
*22 _03_
*23 _04_
*24 _05_
*25 _06_
*26 _07_
*27 _08_
*28 _09_
*29 _10_
*30 _11_
*31 _12_
*32 _13_
*33 _14_
*34 _15_
*35 _16_
*36 _17_
*37 _18_
*38 _19_
*39 _20_
*40 _21_
*41 _22_
*42 _23_
*43 mul_ll\.pp1
*44 mul_ll\.pp2
*45 net1
*46 net10
*47 net11
*48 net12
*49 net13
*50 net14
*51 net15
*52 net16
*53 net2
*54 net3
*55 net4
*56 net5
*57 net6
*58 net7
*59 net8
*60 net9
*61 FILLER_0_15
*62 FILLER_0_27
*63 FILLER_0_29
*64 FILLER_0_3
*65 FILLER_0_34
*66 FILLER_0_48
*67 FILLER_0_57
*68 FILLER_0_69
*69 FILLER_1_15
*70 FILLER_1_27
*71 FILLER_1_3
*72 FILLER_1_39
*73 FILLER_1_45
*74 FILLER_1_51
*75 FILLER_1_57
*76 FILLER_1_66
*77 FILLER_1_78
*78 FILLER_2_19
*79 FILLER_2_27
*80 FILLER_2_29
*81 FILLER_2_41
*82 FILLER_2_65
*83 FILLER_2_7
*84 FILLER_3_11
*85 FILLER_3_16
*86 FILLER_3_3
*87 FILLER_3_42
*88 FILLER_3_54
*89 FILLER_3_69
*90 FILLER_4_19
*91 FILLER_4_26
*92 FILLER_4_29
*93 FILLER_4_41
*94 FILLER_4_53
*95 FILLER_4_57
*96 FILLER_4_7
*97 FILLER_4_72
*98 FILLER_5_18
*99 FILLER_5_22
*100 FILLER_5_28
*101 FILLER_5_39
*102 FILLER_5_51
*103 FILLER_5_6
*104 FILLER_5_70
*105 FILLER_6_15
*106 FILLER_6_29
*107 FILLER_6_3
*108 FILLER_6_39
*109 FILLER_6_51
*110 FILLER_6_62
*111 FILLER_6_70
*112 FILLER_7_19
*113 FILLER_7_33
*114 FILLER_7_42
*115 FILLER_7_54
*116 FILLER_7_57
*117 FILLER_7_63
*118 FILLER_7_67
*119 FILLER_7_7
*120 FILLER_7_75
*121 FILLER_8_15
*122 FILLER_8_26
*123 FILLER_8_29
*124 FILLER_8_3
*125 FILLER_8_41
*126 FILLER_8_53
*127 FILLER_8_67
*128 FILLER_8_79
*129 FILLER_9_15
*130 FILLER_9_23
*131 FILLER_9_29
*132 FILLER_9_3
*133 FILLER_9_41
*134 FILLER_9_53
*135 FILLER_9_57
*136 FILLER_9_63
*137 FILLER_9_75
*138 PHY_EDGE_ROW_0_Left_10
*139 PHY_EDGE_ROW_0_Right_0
*140 PHY_EDGE_ROW_1_Left_11
*141 PHY_EDGE_ROW_1_Right_1
*142 PHY_EDGE_ROW_2_Left_12
*143 PHY_EDGE_ROW_2_Right_2
*144 PHY_EDGE_ROW_3_Left_13
*145 PHY_EDGE_ROW_3_Right_3
*146 PHY_EDGE_ROW_4_Left_14
*147 PHY_EDGE_ROW_4_Right_4
*148 PHY_EDGE_ROW_5_Left_15
*149 PHY_EDGE_ROW_5_Right_5
*150 PHY_EDGE_ROW_6_Left_16
*151 PHY_EDGE_ROW_6_Right_6
*152 PHY_EDGE_ROW_7_Left_17
*153 PHY_EDGE_ROW_7_Right_7
*154 PHY_EDGE_ROW_8_Left_18
*155 PHY_EDGE_ROW_8_Right_8
*156 PHY_EDGE_ROW_9_Left_19
*157 PHY_EDGE_ROW_9_Right_9
*158 TAP_TAPCELL_ROW_0_20
*159 TAP_TAPCELL_ROW_0_21
*160 TAP_TAPCELL_ROW_1_22
*161 TAP_TAPCELL_ROW_2_23
*162 TAP_TAPCELL_ROW_3_24
*163 TAP_TAPCELL_ROW_4_25
*164 TAP_TAPCELL_ROW_5_26
*165 TAP_TAPCELL_ROW_6_27
*166 TAP_TAPCELL_ROW_7_28
*167 TAP_TAPCELL_ROW_8_29
*168 TAP_TAPCELL_ROW_9_30
*169 TAP_TAPCELL_ROW_9_31
*170 _24_
*171 _25_
*172 _26_
*173 _27_
*174 _28_
*175 _29_
*176 _30_
*177 _31_
*178 _32_
*179 _33_
*180 _34_
*181 _35_
*182 _36_
*183 _37_
*184 _38_
*185 _39_
*186 _40_
*187 _41_
*188 _42_
*189 _43_
*190 _44_
*191 _45_
*192 _46_
*193 _47_
*194 _48_
*195 _49_
*196 _50_
*197 _51_
*198 _52_
*199 _53_
*200 _54_
*201 _55_
*202 _56_
*203 _57_
*204 input1
*205 input2
*206 input3
*207 input4
*208 input5
*209 input6
*210 input7
*211 input8
*212 output10
*213 output11
*214 output12
*215 output13
*216 output14
*217 output15
*218 output16
*219 output9

*PORTS
A[0] I
A[1] I
A[2] I
A[3] I
B[0] I
B[1] I
B[2] I
B[3] I
P[0] O
P[1] O
P[2] O
P[3] O
P[4] O
P[5] O
P[6] O
P[7] O

*D_NET *1 0.000901682
*CONN
*P A[0] I
*I *204:A I *D sky130_fd_sc_hd__buf_1
*CAP
1 A[0] 0.000450841
2 *204:A 0.000450841
3 *204:A *206:A 0
*RES
1 A[0] *204:A 47.3214 
*END

*D_NET *2 0.000682534
*CONN
*P A[1] I
*I *205:A I *D sky130_fd_sc_hd__buf_1
*CAP
1 A[1] 0.000261838
2 *205:A 0.000261838
3 *205:A P[2] 8.06147e-05
4 *205:A *210:A 7.82427e-05
*RES
1 A[1] *205:A 49.1918 
*END

*D_NET *3 0.000966612
*CONN
*P A[2] I
*I *206:A I *D sky130_fd_sc_hd__dlymetal6s2s_1
*CAP
1 A[2] 0.000441108
2 *206:A 0.000441108
3 *206:A *5:15 5.50106e-05
4 *206:A *45:10 2.93845e-05
5 *204:A *206:A 0
*RES
1 A[2] *206:A 47.3214 
*END

*D_NET *4 0.000517757
*CONN
*P A[3] I
*I *207:A I *D sky130_fd_sc_hd__buf_1
*CAP
1 A[3] 0.000182491
2 *207:A 0.000182491
3 *207:A P[6] 8.06147e-05
4 *207:A *211:A 7.21596e-05
*RES
1 A[3] *207:A 47.4311 
*END

*D_NET *5 0.00163748
*CONN
*P B[0] I
*I *208:A I *D sky130_fd_sc_hd__buf_1
*CAP
1 B[0] 0.000720327
2 *208:A 0
3 *5:15 0.000720327
4 *5:15 P[0] 0
5 *5:15 *45:10 0.000141819
6 *206:A *5:15 5.50106e-05
*RES
1 B[0] *5:15 29.5207 
2 *5:15 *208:A 23 
*END

*D_NET *6 0.000714438
*CONN
*P B[1] I
*I *209:A I *D sky130_fd_sc_hd__buf_1
*CAP
1 B[1] 0.000342775
2 *209:A 0
3 *6:17 0.000342775
4 *6:17 P[1] 2.88889e-05
5 *6:17 P[4] 0
6 *6:17 *13:14 0
*RES
1 B[1] *6:17 27.8627 
2 *6:17 *209:A 23 
*END

*D_NET *7 0.000693423
*CONN
*P B[2] I
*I *210:A I *D sky130_fd_sc_hd__buf_1
*CAP
1 B[2] 0.000268469
2 *210:A 0.000268469
3 *210:A *211:A 7.82427e-05
4 *210:A *25:8 0
5 *205:A *210:A 7.82427e-05
*RES
1 B[2] *210:A 48.8397 
*END

*D_NET *8 0.000540032
*CONN
*P B[3] I
*I *211:A I *D sky130_fd_sc_hd__dlymetal6s2s_1
*CAP
1 B[3] 0.000194815
2 *211:A 0.000194815
3 *207:A *211:A 7.21596e-05
4 *210:A *211:A 7.82427e-05
*RES
1 B[3] *211:A 47.7832 
*END

*D_NET *9 0.00098736
*CONN
*P P[0] O
*I *219:X O *D sky130_fd_sc_hd__buf_2
*CAP
1 P[0] 0.000490593
2 *219:X 0.000490593
3 P[0] *219:A 6.17437e-06
4 *5:15 P[0] 0
*RES
1 *219:X P[0] 47.86 
*END

*D_NET *10 0.00081785
*CONN
*P P[1] O
*I *212:X O *D sky130_fd_sc_hd__buf_2
*CAP
1 P[1] 8.62259e-05
2 *212:X 0.00029381
3 *10:10 0.000380036
4 P[1] P[3] 1.5289e-05
5 P[1] *12:14 1.35999e-05
6 *10:10 *46:10 0
7 *6:17 P[1] 2.88889e-05
*RES
1 *212:X *10:10 42.5054 
2 *10:10 P[1] 8.4816 
*END

*D_NET *11 0.000540554
*CONN
*P P[2] O
*I *213:X O *D sky130_fd_sc_hd__buf_2
*CAP
1 P[2] 0.00022997
2 *213:X 0.00022997
3 *205:A P[2] 8.06147e-05
*RES
1 *213:X P[2] 47.5169 
*END

*D_NET *12 0.000676002
*CONN
*P P[3] O
*I *214:X O *D sky130_fd_sc_hd__buf_2
*CAP
1 P[3] 8.68308e-05
2 *214:X 0.000236726
3 *12:14 0.000323556
4 P[1] P[3] 1.5289e-05
5 P[1] *12:14 1.35999e-05
*RES
1 *214:X *12:14 49.9 
2 *12:14 P[3] 0.382667 
*END

*D_NET *13 0.000769974
*CONN
*P P[4] O
*I *215:X O *D sky130_fd_sc_hd__buf_2
*CAP
1 P[4] 9.38147e-05
2 *215:X 0.000291172
3 *13:14 0.000384987
4 *6:17 P[4] 0
5 *6:17 *13:14 0
*RES
1 *215:X *13:14 49.9 
2 *13:14 P[4] 0.382667 
*END

*D_NET *14 0.00100219
*CONN
*P P[5] O
*I *216:X O *D sky130_fd_sc_hd__buf_2
*CAP
1 P[5] 0.000501094
2 *216:X 0.000501094
*RES
1 *216:X P[5] 48.9786 
*END

*D_NET *15 0.000673452
*CONN
*P P[6] O
*I *217:X O *D sky130_fd_sc_hd__buf_2
*CAP
1 P[6] 0.000296419
2 *217:X 0.000296419
3 *207:A P[6] 8.06147e-05
*RES
1 *217:X P[6] 48.5734 
*END

*D_NET *16 0.00100219
*CONN
*P P[7] O
*I *218:X O *D sky130_fd_sc_hd__buf_2
*CAP
1 P[7] 0.000501094
2 *218:X 0.000501094
*RES
1 *218:X P[7] 48.9786 
*END

*D_NET *19 0.000432373
*CONN
*I *176:A I *D sky130_fd_sc_hd__xor2_1
*I *172:Y O *D sky130_fd_sc_hd__nand2_1
*CAP
1 *176:A 0.000200043
2 *172:Y 0.000200043
3 *176:A *172:B 3.22879e-05
*RES
1 *172:Y *176:A 49.9771 
*END

*D_NET *20 0.00123841
*CONN
*I *175:A2 I *D sky130_fd_sc_hd__a21bo_1
*I *187:B1 I *D sky130_fd_sc_hd__a32o_1
*I *173:X O *D sky130_fd_sc_hd__and3_1
*CAP
1 *175:A2 0
2 *187:B1 0.00018904
3 *173:X 0.00014921
4 *20:12 0.00018904
5 *20:10 0.00014921
6 *187:B1 *187:A3 3.71311e-05
7 *187:B1 *187:B2 0.000269742
8 *187:B1 *22:10 1.24376e-05
9 *20:10 *45:23 9.84851e-05
10 *20:10 *58:16 0.00014411
*RES
1 *173:X *20:10 41.0036 
2 *20:10 *20:12 15 
3 *20:12 *187:B1 27.5675 
4 *20:12 *175:A2 23 
*END

*D_NET *21 0.000672804
*CONN
*I *175:B1_N I *D sky130_fd_sc_hd__a21bo_1
*I *187:A3 I *D sky130_fd_sc_hd__a32o_1
*I *174:X O *D sky130_fd_sc_hd__a22o_1
*CAP
1 *175:B1_N 0
2 *187:A3 0.000161064
3 *174:X 0.000112276
4 *21:10 0.000161064
5 *21:8 0.000112276
6 *187:A3 *187:A2 3.22879e-05
7 *187:A3 *187:B2 5.67058e-05
8 *21:8 *54:31 0
9 *21:8 *58:16 0
10 *187:B1 *187:A3 3.71311e-05
*RES
1 *174:X *21:8 39.9057 
2 *21:8 *21:10 15 
3 *21:10 *187:A3 26.5007 
4 *21:10 *175:B1_N 23 
*END

*D_NET *22 0.000487135
*CONN
*I *176:B I *D sky130_fd_sc_hd__xor2_1
*I *175:X O *D sky130_fd_sc_hd__a21bo_1
*CAP
1 *176:B 0
2 *175:X 0.000209288
3 *22:10 0.000209288
4 *22:10 *47:8 5.61207e-05
5 *22:10 *56:25 0
6 *187:B1 *22:10 1.24376e-05
*RES
1 *175:X *22:10 41.3557 
2 *22:10 *176:B 38 
*END

*D_NET *23 0.000694518
*CONN
*I *182:A I *D sky130_fd_sc_hd__xnor2_1
*I *177:Y O *D sky130_fd_sc_hd__nand2_1
*CAP
1 *182:A 0
2 *177:Y 0.000221045
3 *23:10 0.000221045
4 *23:10 *37:8 6.79006e-05
5 *23:10 *54:70 0.000184527
6 *23:10 *59:10 0
*RES
1 *177:Y *23:10 41.9564 
2 *23:10 *182:A 38 
*END

*D_NET *24 0.000538099
*CONN
*I *199:A I *D sky130_fd_sc_hd__xnor2_1
*I *178:Y O *D sky130_fd_sc_hd__nand2_1
*CAP
1 *199:A 5.66325e-05
2 *178:Y 4.96324e-05
3 *24:8 0.000106265
4 *199:A *55:22 5.41288e-05
5 *24:8 *198:A 0.000129561
6 *24:8 *55:22 0.000141879
*RES
1 *178:Y *24:8 39.9057 
2 *24:8 *199:A 39.0979 
*END

*D_NET *25 0.0011235
*CONN
*I *181:A_N I *D sky130_fd_sc_hd__and2b_1
*I *192:B1 I *D sky130_fd_sc_hd__a31o_1
*I *179:X O *D sky130_fd_sc_hd__and4_1
*CAP
1 *181:A_N 0
2 *192:B1 0.000111805
3 *179:X 8.63323e-05
4 *25:12 0.00015977
5 *25:8 0.000134297
6 *192:B1 *181:B 5.50106e-05
7 *192:B1 *192:A3 9.58714e-05
8 *192:B1 *58:8 0.000313249
9 *25:8 *55:38 7.03766e-05
10 *25:12 *58:8 9.67842e-05
11 *210:A *25:8 0
*RES
1 *179:X *25:8 39.9057 
2 *25:8 *25:12 16.0979 
3 *25:12 *192:B1 26.48 
4 *25:12 *181:A_N 23 
*END

*D_NET *26 0.000937545
*CONN
*I *181:B I *D sky130_fd_sc_hd__and2b_1
*I *192:A3 I *D sky130_fd_sc_hd__a31o_1
*I *180:X O *D sky130_fd_sc_hd__a22o_1
*CAP
1 *181:B 2.58697e-05
2 *192:A3 0.000103956
3 *180:X 7.66619e-05
4 *26:10 0.000129826
5 *26:8 7.66619e-05
6 *192:A3 *177:A 5.41288e-05
7 *192:A3 *58:8 1.56762e-05
8 *192:A3 *59:34 0.000182826
9 *26:8 *55:38 0
10 *26:8 *59:10 3.47781e-05
11 *26:8 *59:14 8.62783e-05
12 *192:B1 *181:B 5.50106e-05
13 *192:B1 *192:A3 9.58714e-05
*RES
1 *180:X *26:8 39.5536 
2 *26:8 *26:10 15 
3 *26:10 *192:A3 26.0243 
4 *26:10 *181:B 23.6214 
*END

*D_NET *27 0.00067135
*CONN
*I *182:B I *D sky130_fd_sc_hd__xnor2_1
*I *181:X O *D sky130_fd_sc_hd__and2b_1
*CAP
1 *182:B 0.000119752
2 *181:X 0.000100943
3 *27:8 0.000220695
4 *182:B *59:8 5.3304e-05
5 *27:8 *55:38 0
6 *27:8 *59:10 0.000141879
7 *27:8 *59:60 3.47781e-05
*RES
1 *181:X *27:8 40.2579 
2 *27:8 *182:B 40.0507 
*END

*D_NET *28 0.00297582
*CONN
*I *197:A1 I *D sky130_fd_sc_hd__a221o_1
*I *189:B1 I *D sky130_fd_sc_hd__o21ai_1
*I *190:A I *D sky130_fd_sc_hd__or3_1
*I *182:Y O *D sky130_fd_sc_hd__xnor2_1
*CAP
1 *197:A1 0
2 *189:B1 0
3 *190:A 0
4 *182:Y 0.000141654
5 *28:24 7.92918e-05
6 *28:18 0.000400367
7 *28:12 0.000636406
8 *28:8 0.000456985
9 *28:8 *198:A 0
10 *28:8 *59:60 0
11 *28:12 *197:A2 2.02712e-05
12 *28:12 *41:10 0.000668104
13 *28:18 *189:A1 3.91386e-05
14 *28:18 *197:A2 2.85489e-05
15 *28:18 *197:C1 9.90847e-05
16 *28:18 *29:60 8.03326e-05
17 *28:18 *30:21 7.26663e-05
18 *28:18 *35:8 3.26893e-05
19 *28:24 *30:8 6.70363e-05
20 *28:24 *30:21 0.000104869
21 *28:24 *36:8 4.83778e-05
22 *28:24 *39:10 0
*RES
1 *182:Y *28:8 40.61 
2 *28:8 *28:12 23.7207 
3 *28:12 *28:18 6.85643 
4 *28:18 *28:24 32.61 
5 *28:24 *190:A 23 
6 *28:18 *189:B1 23 
7 *28:12 *197:A1 23 
*END

*D_NET *29 0.00237759
*CONN
*I *197:B2 I *D sky130_fd_sc_hd__a221o_1
*I *193:A I *D sky130_fd_sc_hd__nor2_1
*I *194:A I *D sky130_fd_sc_hd__and2_1
*I *184:B I *D sky130_fd_sc_hd__and2_1
*I *185:B I *D sky130_fd_sc_hd__nand2_1
*I *183:X O *D sky130_fd_sc_hd__and2_1
*CAP
1 *197:B2 0
2 *193:A 0
3 *194:A 0
4 *184:B 0
5 *185:B 0
6 *183:X 0
7 *29:60 0.000237254
8 *29:35 0.00026657
9 *29:28 0.000188763
10 *29:12 0.000130767
11 *29:6 0.000384384
12 *29:4 0.000413064
13 *29:6 *59:46 5.56356e-05
14 *29:12 *184:A 0.000117121
15 *29:12 *44:25 6.07611e-06
16 *29:12 *59:46 0
17 *29:28 *30:8 0
18 *29:35 *194:B 0.000100069
19 *29:35 *38:10 3.42479e-05
20 *29:60 *194:B 4.44329e-05
21 *29:60 *197:A2 0.000105485
22 *29:60 *197:B1 0.00017627
23 *29:60 *197:C1 1.8788e-05
24 *29:60 *34:42 0
25 *29:60 *38:10 1.83327e-05
26 *28:18 *29:60 8.03326e-05
*RES
1 *183:X *29:4 23 
2 *29:4 *29:6 4.43286 
3 *29:6 *29:12 33.3143 
4 *29:12 *185:B 23 
5 *29:6 *184:B 23 
6 *29:4 *29:28 32.61 
7 *29:28 *194:A 23 
8 *29:28 *29:35 1.09786 
9 *29:35 *193:A 23 
10 *29:35 *29:60 36.4214 
11 *29:60 *197:B2 23 
*END

*D_NET *30 0.00226688
*CONN
*I *197:A2 I *D sky130_fd_sc_hd__a221o_1
*I *189:A1 I *D sky130_fd_sc_hd__o21ai_1
*I *190:B I *D sky130_fd_sc_hd__or3_1
*I *184:X O *D sky130_fd_sc_hd__and2_1
*CAP
1 *197:A2 0.000437903
2 *189:A1 2.05729e-05
3 *190:B 0
4 *184:X 0.000188709
5 *30:21 0.000559579
6 *30:8 0.000289812
7 *189:A1 *197:C1 3.91386e-05
8 *197:A2 *197:C1 0.00010427
9 *30:8 *34:42 9.26098e-05
10 *30:21 *34:42 8.85189e-05
11 *30:21 *39:10 7.75329e-06
12 *28:12 *197:A2 2.02712e-05
13 *28:18 *189:A1 3.91386e-05
14 *28:18 *197:A2 2.85489e-05
15 *28:18 *30:21 7.26663e-05
16 *28:24 *30:8 6.70363e-05
17 *28:24 *30:21 0.000104869
18 *29:28 *30:8 0
19 *29:60 *197:A2 0.000105485
*RES
1 *184:X *30:8 40.9621 
2 *30:8 *190:B 38 
3 *30:8 *30:21 17.6514 
4 *30:21 *189:A1 23.8493 
5 *30:21 *197:A2 29.9237 
*END

*D_NET *31 0.00194524
*CONN
*I *188:A I *D sky130_fd_sc_hd__and3_1
*I *200:A1 I *D sky130_fd_sc_hd__a21oi_1
*I *185:Y O *D sky130_fd_sc_hd__nand2_1
*CAP
1 *188:A 0.000453392
2 *200:A1 0
3 *185:Y 0.000244831
4 *31:12 0.000453392
5 *31:10 0.000244831
6 *188:A *186:A2 2.02872e-05
7 *188:A *200:B1 0.00047962
8 *188:A *33:14 1.95448e-05
9 *188:A *54:31 2.93431e-05
10 *31:10 *44:25 0
*RES
1 *185:Y *31:10 41.2521 
2 *31:10 *31:12 15 
3 *31:12 *200:A1 23 
4 *31:12 *188:A 29.8357 
*END

*D_NET *32 0.00112703
*CONN
*I *188:B I *D sky130_fd_sc_hd__and3_1
*I *200:A2 I *D sky130_fd_sc_hd__a21oi_1
*I *186:X O *D sky130_fd_sc_hd__a22o_1
*CAP
1 *188:B 7.50645e-05
2 *200:A2 0.000100452
3 *186:X 0
4 *32:4 0.000175516
5 *188:B *34:12 4.3971e-05
6 *188:B *34:23 5.55172e-05
7 *188:B *57:30 0.000140927
8 *200:A2 *200:B1 6.82661e-05
9 *200:A2 *34:12 0.000320495
10 *200:A2 *57:30 0.000146822
*RES
1 *186:X *32:4 23 
2 *32:4 *200:A2 27.2775 
3 *32:4 *188:B 25.0714 
*END

*D_NET *33 0.00253087
*CONN
*I *188:C I *D sky130_fd_sc_hd__and3_1
*I *200:B1 I *D sky130_fd_sc_hd__a21oi_1
*I *187:X O *D sky130_fd_sc_hd__a32o_1
*CAP
1 *188:C 0
2 *200:B1 0.000157684
3 *187:X 0.000578631
4 *33:14 0.000163502
5 *33:10 0.000584449
6 *200:B1 *186:A2 0.000222686
7 *200:B1 *34:12 9.24795e-06
8 *200:B1 *57:26 5.41288e-05
9 *200:B1 *57:30 2.18286e-05
10 *33:10 *187:A2 2.7237e-05
11 *33:10 *34:23 0.000105116
12 *33:10 *45:19 0
13 *33:10 *45:45 0
14 *33:10 *54:44 3.18198e-05
15 *33:14 *186:A2 7.1072e-06
16 *188:A *200:B1 0.00047962
17 *188:A *33:14 1.95448e-05
18 *200:A2 *200:B1 6.82661e-05
*RES
1 *187:X *33:10 45.5193 
2 *33:10 *33:14 15.2279 
3 *33:14 *200:B1 29.2557 
4 *33:14 *188:C 23 
*END

*D_NET *34 0.005723
*CONN
*I *197:B1 I *D sky130_fd_sc_hd__a221o_1
*I *189:A2 I *D sky130_fd_sc_hd__o21ai_1
*I *190:C I *D sky130_fd_sc_hd__or3_1
*I *201:A I *D sky130_fd_sc_hd__nor2_1
*I *188:X O *D sky130_fd_sc_hd__and3_1
*CAP
1 *197:B1 0.000382736
2 *189:A2 0
3 *190:C 0
4 *201:A 0
5 *188:X 0
6 *34:42 0.000103024
7 *34:29 0.000514425
8 *34:23 0.00129119
9 *34:12 0.000622257
10 *34:4 0.00111931
11 *34:12 *42:12 0.000272383
12 *34:12 *57:12 1.14452e-05
13 *34:12 *57:26 4.95081e-05
14 *34:23 *54:44 0.000181209
15 *34:23 *57:26 0
16 *34:23 *59:46 0
17 *34:29 *194:B 0.000229797
18 *34:29 *38:10 3.91683e-06
19 *34:29 *39:10 6.71408e-06
20 *34:42 *39:10 4.334e-05
21 *188:B *34:12 4.3971e-05
22 *188:B *34:23 5.55172e-05
23 *200:A2 *34:12 0.000320495
24 *200:B1 *34:12 9.24795e-06
25 *29:60 *197:B1 0.00017627
26 *29:60 *34:42 0
27 *30:8 *34:42 9.26098e-05
28 *30:21 *34:42 8.85189e-05
29 *33:10 *34:23 0.000105116
*RES
1 *188:X *34:4 23 
2 *34:4 *34:12 39.4457 
3 *34:12 *201:A 23 
4 *34:4 *34:23 24.2179 
5 *34:23 *34:29 21.235 
6 *34:29 *190:C 23 
7 *34:29 *34:42 32.8793 
8 *34:42 *189:A2 23 
9 *34:23 *197:B1 44.38 
*END

*D_NET *35 0.000736531
*CONN
*I *191:A I *D sky130_fd_sc_hd__and2_1
*I *196:A I *D sky130_fd_sc_hd__xnor2_1
*I *189:Y O *D sky130_fd_sc_hd__o21ai_1
*CAP
1 *191:A 0
2 *196:A 0
3 *189:Y 8.13575e-05
4 *35:16 0.000215601
5 *35:8 0.000296958
6 *35:16 *196:B 9.84794e-05
7 *35:16 *36:8 1.14452e-05
8 *35:16 *40:8 0
9 *28:18 *35:8 3.26893e-05
*RES
1 *189:Y *35:8 24.595 
2 *35:8 *35:16 34.1843 
3 *35:16 *196:A 23 
4 *35:8 *191:A 23 
*END

*D_NET *36 0.000251093
*CONN
*I *191:B I *D sky130_fd_sc_hd__and2_1
*I *190:X O *D sky130_fd_sc_hd__or3_1
*CAP
1 *191:B 0
2 *190:X 9.56348e-05
3 *36:8 9.56348e-05
4 *36:8 *39:10 0
5 *28:24 *36:8 4.83778e-05
6 *35:16 *36:8 1.14452e-05
*RES
1 *190:X *36:8 40.2579 
2 *36:8 *191:B 38 
*END

*D_NET *37 0.00207977
*CONN
*I *193:B I *D sky130_fd_sc_hd__nor2_1
*I *194:B I *D sky130_fd_sc_hd__and2_1
*I *192:X O *D sky130_fd_sc_hd__a31o_1
*CAP
1 *193:B 0
2 *194:B 9.77046e-05
3 *192:X 0.000155434
4 *37:12 0.000643924
5 *37:8 0.000701654
6 *194:B *38:10 1.6452e-05
7 *37:8 *54:70 1.86869e-05
8 *37:12 *38:10 3.7122e-06
9 *23:10 *37:8 6.79006e-05
10 *29:35 *194:B 0.000100069
11 *29:60 *194:B 4.44329e-05
12 *34:29 *194:B 0.000229797
*RES
1 *192:X *37:8 40.9621 
2 *37:8 *37:12 24.1971 
3 *37:12 *194:B 26.5214 
4 *37:12 *193:B 23 
*END

*D_NET *38 0.000859037
*CONN
*I *195:A I *D sky130_fd_sc_hd__nor2_1
*I *193:Y O *D sky130_fd_sc_hd__nor2_1
*CAP
1 *195:A 0
2 *193:Y 0.000353883
3 *38:10 0.000353883
4 *38:10 *39:10 7.461e-05
5 *194:B *38:10 1.6452e-05
6 *29:35 *38:10 3.42479e-05
7 *29:60 *38:10 1.83327e-05
8 *34:29 *38:10 3.91683e-06
9 *37:12 *38:10 3.7122e-06
*RES
1 *193:Y *38:10 43.2614 
2 *38:10 *195:A 38 
*END

*D_NET *39 0.000985201
*CONN
*I *195:B I *D sky130_fd_sc_hd__nor2_1
*I *197:C1 I *D sky130_fd_sc_hd__a221o_1
*I *194:X O *D sky130_fd_sc_hd__and2_1
*CAP
1 *195:B 0
2 *197:C1 8.3795e-05
3 *194:X 0.000211956
4 *39:12 8.3795e-05
5 *39:10 0.000211956
6 *189:A1 *197:C1 3.91386e-05
7 *197:A2 *197:C1 0.00010427
8 *28:18 *197:C1 9.90847e-05
9 *28:24 *39:10 0
10 *29:60 *197:C1 1.8788e-05
11 *30:21 *39:10 7.75329e-06
12 *34:29 *39:10 6.71408e-06
13 *34:42 *39:10 4.334e-05
14 *36:8 *39:10 0
15 *38:10 *39:10 7.461e-05
*RES
1 *194:X *39:10 40.8793 
2 *39:10 *39:12 15 
3 *39:12 *197:C1 26.045 
4 *39:12 *195:B 23 
*END

*D_NET *40 0.000822679
*CONN
*I *196:B I *D sky130_fd_sc_hd__xnor2_1
*I *195:Y O *D sky130_fd_sc_hd__nor2_1
*CAP
1 *196:B 0.000232302
2 *195:Y 0.000129797
3 *40:8 0.0003621
4 *35:16 *196:B 9.84794e-05
5 *35:16 *40:8 0
*RES
1 *195:Y *40:8 40.2579 
2 *40:8 *196:B 42.4329 
*END

*D_NET *41 0.00232941
*CONN
*I *199:B I *D sky130_fd_sc_hd__xnor2_1
*I *198:C I *D sky130_fd_sc_hd__and3_1
*I *197:X O *D sky130_fd_sc_hd__a221o_1
*CAP
1 *199:B 0.000176325
2 *198:C 0
3 *197:X 0.00055218
4 *41:14 0.00019463
5 *41:10 0.000570484
6 *199:B *198:A 0.000134852
7 *199:B *55:22 1.32939e-05
8 *41:14 *198:A 1.95448e-05
9 *28:12 *41:10 0.000668104
*RES
1 *197:X *41:10 46.9693 
2 *41:10 *41:14 15.2279 
3 *41:14 *198:C 23 
4 *41:14 *199:B 26.1693 
*END

*D_NET *42 0.000822448
*CONN
*I *201:B I *D sky130_fd_sc_hd__nor2_1
*I *200:Y O *D sky130_fd_sc_hd__a21oi_1
*CAP
1 *201:B 0
2 *200:Y 0.000117405
3 *42:12 0.000117405
4 *42:12 *203:A 5.59821e-05
5 *42:12 *48:10 7.53384e-06
6 *42:12 *57:26 0.00025174
7 *34:12 *42:12 0.000272383
*RES
1 *200:Y *42:12 28.0957 
2 *42:12 *201:B 23 
*END

*D_NET *43 0.000425838
*CONN
*I *202:A I *D sky130_fd_sc_hd__clkbuf_1
*I *171:X O *D sky130_fd_sc_hd__and2_1
*CAP
1 *202:A 0
2 *171:X 0.000156676
3 *43:10 0.000156676
4 *43:10 *45:10 6.7177e-06
5 *43:10 *56:10 8.62876e-05
6 *43:10 *56:19 1.94812e-05
*RES
1 *171:X *43:10 40.8793 
2 *43:10 *202:A 38 
*END

*D_NET *44 0.00147441
*CONN
*I *184:A I *D sky130_fd_sc_hd__and2_1
*I *185:A I *D sky130_fd_sc_hd__nand2_1
*I *203:A I *D sky130_fd_sc_hd__clkbuf_1
*I *170:X O *D sky130_fd_sc_hd__and2_1
*CAP
1 *184:A 8.27116e-05
2 *185:A 0
3 *203:A 0.000274996
4 *170:X 6.87627e-05
5 *44:25 0.000166978
6 *44:6 0.000428026
7 *184:A *57:12 7.90464e-05
8 *203:A *48:10 4.8339e-05
9 *203:A *57:26 4.06849e-05
10 *44:6 *57:26 3.53115e-05
11 *44:25 *57:12 7.03766e-05
12 *44:25 *59:46 0
13 *29:12 *184:A 0.000117121
14 *29:12 *44:25 6.07611e-06
15 *31:10 *44:25 0
16 *42:12 *203:A 5.59821e-05
*RES
1 *170:X *44:6 24.0979 
2 *44:6 *203:A 28.2407 
3 *44:6 *44:25 16.9057 
4 *44:25 *185:A 38 
5 *44:25 *184:A 40.9621 
*END

*D_NET *45 0.00686885
*CONN
*I *186:B2 I *D sky130_fd_sc_hd__a22o_1
*I *170:B I *D sky130_fd_sc_hd__and2_1
*I *174:B2 I *D sky130_fd_sc_hd__a22o_1
*I *173:B I *D sky130_fd_sc_hd__and3_1
*I *171:A I *D sky130_fd_sc_hd__and2_1
*I *204:X O *D sky130_fd_sc_hd__buf_1
*CAP
1 *186:B2 1.52818e-05
2 *170:B 0.000360439
3 *174:B2 4.86602e-05
4 *173:B 2.34823e-05
5 *171:A 0
6 *204:X 0.000329771
7 *45:45 0.00140776
8 *45:23 0.000478671
9 *45:19 0.001644
10 *45:10 0.000535198
11 *170:B *57:12 1.34542e-05
12 *174:B2 *173:A 0.000143655
13 *174:B2 *57:56 0
14 *186:B2 *59:46 9.85586e-06
15 *45:10 *56:10 0.000490742
16 *45:19 *54:16 0.000141888
17 *45:19 *54:31 0.000210659
18 *45:19 *56:10 6.07611e-06
19 *45:19 *56:25 0
20 *45:23 *173:A 5.73332e-05
21 *45:23 *57:30 0.000530622
22 *45:23 *57:56 8.6949e-05
23 *45:45 *54:31 5.79427e-05
24 *206:A *45:10 2.93845e-05
25 *5:15 *45:10 0.000141819
26 *20:10 *45:23 9.84851e-05
27 *33:10 *45:19 0
28 *33:10 *45:45 0
29 *43:10 *45:10 6.7177e-06
*RES
1 *204:X *45:10 46.9486 
2 *45:10 *171:A 38 
3 *45:10 *45:19 5.075 
4 *45:19 *45:23 24.6736 
5 *45:23 *173:B 23.4971 
6 *45:23 *174:B2 25.4236 
7 *45:19 *45:45 10.4552 
8 *45:45 *170:B 46.9781 
9 *45:45 *186:B2 46.3211 
*END

*D_NET *46 0.000752376
*CONN
*I *212:A I *D sky130_fd_sc_hd__buf_2
*I *203:X O *D sky130_fd_sc_hd__clkbuf_1
*CAP
1 *212:A 0
2 *203:X 0.00035811
3 *46:10 0.00035811
4 *46:10 *48:10 3.61569e-05
5 *10:10 *46:10 0
*RES
1 *203:X *46:10 43.3857 
2 *46:10 *212:A 38 
*END

*D_NET *47 0.000988633
*CONN
*I *213:A I *D sky130_fd_sc_hd__buf_2
*I *176:X O *D sky130_fd_sc_hd__xor2_1
*CAP
1 *213:A 0.000324535
2 *176:X 0.000141721
3 *47:8 0.000466256
4 *22:10 *47:8 5.61207e-05
*RES
1 *176:X *47:8 40.9621 
2 *47:8 *213:A 43.8621 
*END

*D_NET *48 0.00117375
*CONN
*I *214:A I *D sky130_fd_sc_hd__buf_2
*I *201:Y O *D sky130_fd_sc_hd__nor2_1
*CAP
1 *214:A 0
2 *201:Y 0.00054086
3 *48:10 0.00054086
4 *203:A *48:10 4.8339e-05
5 *42:12 *48:10 7.53384e-06
6 *46:10 *48:10 3.61569e-05
*RES
1 *201:Y *48:10 46.12 
2 *48:10 *214:A 38 
*END

*D_NET *49 0.000785012
*CONN
*I *215:A I *D sky130_fd_sc_hd__buf_2
*I *191:X O *D sky130_fd_sc_hd__and2_1
*CAP
1 *215:A 0
2 *191:X 0.000392506
3 *49:6 0.000392506
*RES
1 *191:X *49:6 30.2914 
2 *49:6 *215:A 23 
*END

*D_NET *50 0.000238185
*CONN
*I *216:A I *D sky130_fd_sc_hd__buf_2
*I *196:Y O *D sky130_fd_sc_hd__xnor2_1
*CAP
1 *216:A 0
2 *196:Y 0.000119093
3 *50:8 0.000119093
*RES
1 *196:Y *50:8 40.2579 
2 *50:8 *216:A 38 
*END

*D_NET *51 0.000883266
*CONN
*I *217:A I *D sky130_fd_sc_hd__buf_2
*I *199:Y O *D sky130_fd_sc_hd__xnor2_1
*CAP
1 *217:A 0.000298888
2 *199:Y 0.000137673
3 *51:8 0.000436561
4 *51:8 *52:8 0
5 *51:8 *55:22 1.01436e-05
*RES
1 *199:Y *51:8 40.61 
2 *51:8 *217:A 43.3857 
*END

*D_NET *52 0.000238185
*CONN
*I *218:A I *D sky130_fd_sc_hd__buf_2
*I *198:X O *D sky130_fd_sc_hd__and3_1
*CAP
1 *218:A 0
2 *198:X 0.000119093
3 *52:8 0.000119093
4 *51:8 *52:8 0
*RES
1 *198:X *52:8 40.2579 
2 *52:8 *218:A 38 
*END

*D_NET *53 0.00249507
*CONN
*I *179:B I *D sky130_fd_sc_hd__and4_1
*I *173:C I *D sky130_fd_sc_hd__and3_1
*I *180:A1 I *D sky130_fd_sc_hd__a22o_1
*I *174:A2 I *D sky130_fd_sc_hd__a22o_1
*I *205:X O *D sky130_fd_sc_hd__buf_1
*CAP
1 *179:B 0
2 *173:C 0
3 *180:A1 0
4 *174:A2 3.33654e-05
5 *205:X 0.000394744
6 *53:31 0.0001153
7 *53:16 0.000361944
8 *53:14 0.000339088
9 *53:6 0.000520552
10 *174:A2 *173:A 9.72057e-06
11 *174:A2 *57:56 1.14154e-05
12 *53:6 *179:C 2.93845e-05
13 *53:6 *180:B1 1.76557e-05
14 *53:14 *173:A 5.10353e-05
15 *53:14 *58:12 0
16 *53:16 *173:A 0.00022462
17 *53:16 *57:56 1.76557e-05
18 *53:31 *179:A 1.14452e-05
19 *53:31 *180:B1 0.000151795
20 *53:31 *57:34 0.000140958
21 *53:31 *58:12 6.4393e-05
*RES
1 *205:X *53:6 28.3857 
2 *53:6 *53:14 31.9057 
3 *53:14 *53:16 3.39714 
4 *53:16 *174:A2 23.8493 
5 *53:16 *53:31 33.0036 
6 *53:31 *180:A1 23 
7 *53:14 *173:C 23 
8 *53:6 *179:B 23 
*END

*D_NET *54 0.00646594
*CONN
*I *172:B I *D sky130_fd_sc_hd__nand2_1
*I *192:A2 I *D sky130_fd_sc_hd__a31o_1
*I *177:B I *D sky130_fd_sc_hd__nand2_1
*I *183:A I *D sky130_fd_sc_hd__and2_1
*I *186:A2 I *D sky130_fd_sc_hd__a22o_1
*I *187:A2 I *D sky130_fd_sc_hd__a32o_1
*I *206:X O *D sky130_fd_sc_hd__dlymetal6s2s_1
*CAP
1 *172:B 0.000213958
2 *192:A2 0
3 *177:B 0
4 *183:A 5.25677e-05
5 *186:A2 6.91128e-05
6 *187:A2 0.000133429
7 *206:X 0.000195141
8 *54:70 0.000167208
9 *54:55 0.000441221
10 *54:44 0.00058791
11 *54:31 0.000628618
12 *54:16 0.000513849
13 *54:12 0.000498997
14 *54:8 0.000397937
15 *172:B *56:19 0.000227208
16 *183:A *59:34 5.12254e-05
17 *186:A2 *57:30 0.000272991
18 *54:16 *56:25 0
19 *54:31 *57:30 0.000305136
20 *54:55 *59:34 0.000218898
21 *54:70 *177:A 0.0002263
22 *54:70 *58:12 3.70094e-05
23 *54:70 *59:10 6.7177e-06
24 *54:70 *59:34 2.25419e-05
25 *176:A *172:B 3.22879e-05
26 *187:A3 *187:A2 3.22879e-05
27 *188:A *186:A2 2.02872e-05
28 *188:A *54:31 2.93431e-05
29 *200:B1 *186:A2 0.000222686
30 *21:8 *54:31 0
31 *23:10 *54:70 0.000184527
32 *33:10 *187:A2 2.7237e-05
33 *33:10 *54:44 3.18198e-05
34 *33:14 *186:A2 7.1072e-06
35 *34:23 *54:44 0.000181209
36 *37:8 *54:70 1.86869e-05
37 *45:19 *54:16 0.000141888
38 *45:19 *54:31 0.000210659
39 *45:45 *54:31 5.79427e-05
*RES
1 *206:X *54:8 41.3143 
2 *54:8 *54:12 18.0036 
3 *54:12 *54:16 16.9057 
4 *54:16 *187:A2 40.5271 
5 *54:16 *54:31 22.1464 
6 *54:31 *186:A2 26.0036 
7 *54:31 *54:44 35.4271 
8 *54:44 *183:A 24.0979 
9 *54:44 *54:55 6.83571 
10 *54:55 *177:B 23 
11 *54:55 *54:70 34.8264 
12 *54:70 *192:A2 23 
13 *54:12 *172:B 27.4536 
*END

*D_NET *55 0.00438933
*CONN
*I *180:B1 I *D sky130_fd_sc_hd__a22o_1
*I *179:D I *D sky130_fd_sc_hd__and4_1
*I *178:B I *D sky130_fd_sc_hd__nand2_1
*I *198:B I *D sky130_fd_sc_hd__and3_1
*I *207:X O *D sky130_fd_sc_hd__buf_1
*CAP
1 *180:B1 0.000321518
2 *179:D 0
3 *178:B 0
4 *198:B 0
5 *207:X 0.00028186
6 *55:38 0.000843955
7 *55:22 0.000408637
8 *55:10 0.0004987
9 *55:8 0.00089436
10 *180:B1 *179:A 0.000310653
11 *180:B1 *179:C 0.000228909
12 *180:B1 *180:A2 5.50049e-05
13 *55:22 *198:A 8.18277e-05
14 *55:22 *59:60 4.6318e-06
15 *55:38 *59:10 0
16 *55:38 *59:14 0
17 *55:38 *59:60 0
18 *199:A *55:22 5.41288e-05
19 *199:B *55:22 1.32939e-05
20 *24:8 *55:22 0.000141879
21 *25:8 *55:38 7.03766e-05
22 *26:8 *55:38 0
23 *27:8 *55:38 0
24 *51:8 *55:22 1.01436e-05
25 *53:6 *180:B1 1.76557e-05
26 *53:31 *180:B1 0.000151795
*RES
1 *207:X *55:8 28.2821 
2 *55:8 *55:10 1.57429 
3 *55:10 *55:22 38.3893 
4 *55:22 *198:B 23 
5 *55:10 *178:B 23 
6 *55:8 *55:38 38.9486 
7 *55:38 *179:D 23 
8 *55:38 *180:B1 31.7829 
*END

*D_NET *56 0.00217217
*CONN
*I *172:A I *D sky130_fd_sc_hd__nand2_1
*I *187:A1 I *D sky130_fd_sc_hd__a32o_1
*I *171:B I *D sky130_fd_sc_hd__and2_1
*I *208:X O *D sky130_fd_sc_hd__buf_1
*CAP
1 *172:A 0
2 *187:A1 0
3 *171:B 0
4 *208:X 0.00043154
5 *56:25 0.000149901
6 *56:19 0.000239649
7 *56:12 8.9748e-05
8 *56:10 0.00043154
9 *172:B *56:19 0.000227208
10 *22:10 *56:25 0
11 *43:10 *56:10 8.62876e-05
12 *43:10 *56:19 1.94812e-05
13 *45:10 *56:10 0.000490742
14 *45:19 *56:10 6.07611e-06
15 *45:19 *56:25 0
16 *54:16 *56:25 0
*RES
1 *208:X *56:10 45.6436 
2 *56:10 *56:12 15 
3 *56:12 *171:B 23 
4 *56:12 *56:19 2.52714 
5 *56:19 *56:25 32.2579 
6 *56:25 *187:A1 23 
7 *56:19 *172:A 23 
*END

*D_NET *57 0.00738481
*CONN
*I *170:A I *D sky130_fd_sc_hd__and2_1
*I *186:A1 I *D sky130_fd_sc_hd__a22o_1
*I *173:A I *D sky130_fd_sc_hd__and3_1
*I *174:A1 I *D sky130_fd_sc_hd__a22o_1
*I *179:A I *D sky130_fd_sc_hd__and4_1
*I *180:B2 I *D sky130_fd_sc_hd__a22o_1
*I *209:X O *D sky130_fd_sc_hd__buf_1
*CAP
1 *170:A 0
2 *186:A1 0
3 *173:A 0.000113594
4 *174:A1 0
5 *179:A 0.000229057
6 *180:B2 0
7 *209:X 0.000588195
8 *57:56 0.000159936
9 *57:34 0.000395157
10 *57:30 0.000616047
11 *57:26 0.00076759
12 *57:12 0.000574151
13 *57:8 0.000798362
14 *179:A *58:12 1.4471e-05
15 *57:26 *59:46 1.05441e-05
16 *57:34 *58:12 6.02277e-06
17 *57:34 *58:16 2.22183e-05
18 *170:B *57:12 1.34542e-05
19 *174:A2 *173:A 9.72057e-06
20 *174:A2 *57:56 1.14154e-05
21 *174:B2 *173:A 0.000143655
22 *174:B2 *57:56 0
23 *180:B1 *179:A 0.000310653
24 *184:A *57:12 7.90464e-05
25 *186:A2 *57:30 0.000272991
26 *188:B *57:30 0.000140927
27 *200:A2 *57:30 0.000146822
28 *200:B1 *57:26 5.41288e-05
29 *200:B1 *57:30 2.18286e-05
30 *203:A *57:26 4.06849e-05
31 *34:12 *57:12 1.14452e-05
32 *34:12 *57:26 4.95081e-05
33 *34:23 *57:26 0
34 *42:12 *57:26 0.00025174
35 *44:6 *57:26 3.53115e-05
36 *44:25 *57:12 7.03766e-05
37 *45:23 *173:A 5.73332e-05
38 *45:23 *57:30 0.000530622
39 *45:23 *57:56 8.6949e-05
40 *53:14 *173:A 5.10353e-05
41 *53:16 *173:A 0.00022462
42 *53:16 *57:56 1.76557e-05
43 *53:31 *179:A 1.14452e-05
44 *53:31 *57:34 0.000140958
45 *54:31 *57:30 0.000305136
*RES
1 *209:X *57:8 45.7679 
2 *57:8 *57:12 19.7229 
3 *57:12 *57:26 37.4986 
4 *57:26 *57:30 12.5529 
5 *57:30 *57:34 17.9621 
6 *57:34 *180:B2 38 
7 *57:34 *179:A 42.3293 
8 *57:30 *57:56 1.595 
9 *57:56 *174:A1 23 
10 *57:56 *173:A 27.5986 
11 *57:26 *186:A1 23 
12 *57:12 *170:A 23 
*END

*D_NET *58 0.0035605
*CONN
*I *192:A1 I *D sky130_fd_sc_hd__a31o_1
*I *177:A I *D sky130_fd_sc_hd__nand2_1
*I *174:B1 I *D sky130_fd_sc_hd__a22o_1
*I *175:A1 I *D sky130_fd_sc_hd__a21bo_1
*I *187:B2 I *D sky130_fd_sc_hd__a32o_1
*I *210:X O *D sky130_fd_sc_hd__buf_1
*CAP
1 *192:A1 0
2 *177:A 7.76633e-05
3 *174:B1 0
4 *175:A1 0
5 *187:B2 8.04309e-05
6 *210:X 0.000428535
7 *58:16 0.000257122
8 *58:12 0.00044145