*SPEF "ieee 1481-1999"
*DESIGN "mult4_SARSA_RUIDO_e9_SARSA_RUIDO_e9_SarsaNStepsRuido_e9_SARSA_RUIDO_e9"
*DATE "18:37:48 Tuesday September 16, 2025"
*VENDOR "The OpenROAD Project"
*PROGRAM "OpenROAD"
*VERSION "edf00dff99f6c40d67a30c0e22a8191c5d2ed9d6"
*DESIGN_FLOW "NAME_SCOPE LOCAL" "PIN_CAP NONE"
*DIVIDER /
*DELIMITER :
*BUS_DELIMITER []
*T_UNIT 1 NS
*C_UNIT 1 PF
*R_UNIT 1 OHM
*L_UNIT 1 HENRY

*NAME_MAP
*1 A[0]
*2 A[1]
*3 A[2]
*4 A[3]
*5 B[0]
*6 B[1]
*7 B[2]
*8 B[3]
*9 P[0]
*10 P[1]
*11 P[2]
*12 P[3]
*13 P[4]
*14 P[5]
*15 P[6]
*16 P[7]
*19 _00_
*20 _01_
*21 _02_
*22 _03_
*23 _04_
*24 _05_
*25 _06_
*26 _07_
*27 _08_
*28 _09_
*29 _10_
*30 _11_
*31 _12_
*32 _13_
*33 _14_
*34 _15_
*35 _16_
*36 _17_
*37 _18_
*38 _19_
*39 _20_
*40 _21_
*41 _22_
*42 _23_
*43 _24_
*44 _25_
*45 _26_
*46 _27_
*47 _28_
*48 _29_
*49 _30_
*50 _31_
*51 _32_
*52 _33_
*53 _34_
*54 _35_
*55 _36_
*56 _37_
*57 _38_
*58 _39_
*59 _40_
*60 _41_
*61 _42_
*62 _43_
*63 _44_
*64 _45_
*65 net1
*66 net10
*67 net11
*68 net12
*69 net13
*70 net14
*71 net15
*72 net16
*73 net2
*74 net3
*75 net4
*76 net5
*77 net6
*78 net7
*79 net8
*80 net9
*81 FILLER_0_13
*82 FILLER_0_21
*83 FILLER_0_36
*84 FILLER_0_44
*85 FILLER_0_49
*86 FILLER_0_55
*87 FILLER_0_57
*88 FILLER_0_69
*89 FILLER_1_13
*90 FILLER_1_37
*91 FILLER_1_49
*92 FILLER_1_57
*93 FILLER_1_68
*94 FILLER_1_74
*95 FILLER_2_14
*96 FILLER_2_23
*97 FILLER_2_27
*98 FILLER_2_29
*99 FILLER_2_40
*100 FILLER_2_52
*101 FILLER_2_60
*102 FILLER_2_66
*103 FILLER_2_75
*104 FILLER_3_10
*105 FILLER_3_16
*106 FILLER_3_22
*107 FILLER_3_26
*108 FILLER_3_53
*109 FILLER_3_57
*110 FILLER_3_70
*111 FILLER_3_78
*112 FILLER_4_21
*113 FILLER_4_27
*114 FILLER_4_29
*115 FILLER_4_45
*116 FILLER_4_57
*117 FILLER_4_71
*118 FILLER_4_79
*119 FILLER_4_9
*120 FILLER_5_21
*121 FILLER_5_3
*122 FILLER_5_44
*123 FILLER_5_57
*124 FILLER_5_69
*125 FILLER_6_15
*126 FILLER_6_26
*127 FILLER_6_29
*128 FILLER_6_3
*129 FILLER_6_71
*130 FILLER_6_79
*131 FILLER_7_20
*132 FILLER_7_38
*133 FILLER_7_49
*134 FILLER_7_55
*135 FILLER_7_57
*136 FILLER_7_69
*137 FILLER_8_23
*138 FILLER_8_27
*139 FILLER_8_29
*140 FILLER_8_3
*141 FILLER_8_37
*142 FILLER_8_45
*143 FILLER_8_53
*144 FILLER_8_74
*145 FILLER_8_80
*146 FILLER_9_18
*147 FILLER_9_26
*148 FILLER_9_29
*149 FILLER_9_41
*150 FILLER_9_54
*151 FILLER_9_57
*152 FILLER_9_69
*153 FILLER_9_7
*154 PHY_EDGE_ROW_0_Left_10
*155 PHY_EDGE_ROW_0_Right_0
*156 PHY_EDGE_ROW_1_Left_11
*157 PHY_EDGE_ROW_1_Right_1
*158 PHY_EDGE_ROW_2_Left_12
*159 PHY_EDGE_ROW_2_Right_2
*160 PHY_EDGE_ROW_3_Left_13
*161 PHY_EDGE_ROW_3_Right_3
*162 PHY_EDGE_ROW_4_Left_14
*163 PHY_EDGE_ROW_4_Right_4
*164 PHY_EDGE_ROW_5_Left_15
*165 PHY_EDGE_ROW_5_Right_5
*166 PHY_EDGE_ROW_6_Left_16
*167 PHY_EDGE_ROW_6_Right_6
*168 PHY_EDGE_ROW_7_Left_17
*169 PHY_EDGE_ROW_7_Right_7
*170 PHY_EDGE_ROW_8_Left_18
*171 PHY_EDGE_ROW_8_Right_8
*172 PHY_EDGE_ROW_9_Left_19
*173 PHY_EDGE_ROW_9_Right_9
*174 TAP_TAPCELL_ROW_0_20
*175 TAP_TAPCELL_ROW_0_21
*176 TAP_TAPCELL_ROW_1_22
*177 TAP_TAPCELL_ROW_2_23
*178 TAP_TAPCELL_ROW_3_24
*179 TAP_TAPCELL_ROW_4_25
*180 TAP_TAPCELL_ROW_5_26
*181 TAP_TAPCELL_ROW_6_27
*182 TAP_TAPCELL_ROW_7_28
*183 TAP_TAPCELL_ROW_8_29
*184 TAP_TAPCELL_ROW_9_30
*185 TAP_TAPCELL_ROW_9_31
*186 _46_
*187 _47_
*188 _48_
*189 _49_
*190 _50_
*191 _51_
*192 _52_
*193 _53_
*194 _54_
*195 _55_
*196 _56_
*197 _57_
*198 _58_
*199 _59_
*200 _60_
*201 _61_
*202 _62_
*203 _63_
*204 _64_
*205 _65_
*206 _66_
*207 _67_
*208 _68_
*209 _69_
*210 _70_
*211 _71_
*212 _72_
*213 _73_
*214 _74_
*215 _75_
*216 _76_
*217 _77_
*218 _78_
*219 _79_
*220 _80_
*221 _81_
*222 _82_
*223 _83_
*224 _84_
*225 _85_
*226 _86_
*227 _87_
*228 _88_
*229 _89_
*230 _90_
*231 _91_
*232 _92_
*233 _93_
*234 _94_
*235 _95_
*236 _96_
*237 _97_
*238 _98_
*239 _99_
*240 input1
*241 input2
*242 input3
*243 input4
*244 input5
*245 input6
*246 input7
*247 input8
*248 output10
*249 output11
*250 output12
*251 output13
*252 output14
*253 output15
*254 output16
*255 output9

*PORTS
A[0] I
A[1] I
A[2] I
A[3] I
B[0] I
B[1] I
B[2] I
B[3] I
P[0] O
P[1] O
P[2] O
P[3] O
P[4] O
P[5] O
P[6] O
P[7] O

*D_NET *1 0.000596511
*CONN
*P A[0] I
*I *240:A I *D sky130_fd_sc_hd__dlymetal6s2s_1
*CAP
1 A[0] 0.000284756
2 *240:A 0.000284756
3 *240:A *245:A 2.69997e-05
*RES
1 A[0] *240:A 7.3443 
*END

*D_NET *2 0.000675286
*CONN
*P A[1] I
*I *241:A I *D sky130_fd_sc_hd__buf_1
*CAP
1 A[1] 0.000209939
2 *241:A 0.000209939
3 *241:A *244:A 0.000232918
4 *241:A *246:A 2.24901e-05
5 *241:A *77:73 0
*RES
1 A[1] *241:A 7.0893 
*END

*D_NET *3 0.000590999
*CONN
*P A[2] I
*I *242:A I *D sky130_fd_sc_hd__clkbuf_2
*CAP
1 A[2] 0.000279795
2 *242:A 0.000279795
3 *242:A *247:A 3.14094e-05
*RES
1 A[2] *242:A 7.1793 
*END

*D_NET *4 0.000535548
*CONN
*P A[3] I
*I *243:A I *D sky130_fd_sc_hd__dlymetal6s2s_1
*CAP
1 A[3] 0.000242276
2 *243:A 0.000242276
3 *243:A *246:A 2.24901e-05
4 *243:A *247:A 2.85068e-05
*RES
1 A[3] *243:A 6.8343 
*END

*D_NET *5 0.000930064
*CONN
*P B[0] I
*I *244:A I *D sky130_fd_sc_hd__buf_1
*CAP
1 B[0] 0.000330076
2 *244:A 0.000330076
3 *244:A P[1] 3.6993e-05
4 *244:A *246:A 0
5 *244:A *73:10 0
6 *244:A *77:73 0
7 *241:A *244:A 0.000232918
*RES
1 B[0] *244:A 9.05543 
*END

*D_NET *6 0.000543661
*CONN
*P B[1] I
*I *245:A I *D sky130_fd_sc_hd__dlymetal6s2s_1
*CAP
1 B[1] 0.000244077
2 *245:A 0.000244077
3 *245:A P[1] 2.85068e-05
4 *240:A *245:A 2.69997e-05
*RES
1 B[1] *245:A 6.8343 
*END

*D_NET *7 0.00112939
*CONN
*P B[2] I
*I *246:A I *D sky130_fd_sc_hd__buf_1
*CAP
1 B[2] 0.000521962
2 *246:A 0.000521962
3 *246:A *212:A2 1.7635e-05
4 *246:A *247:A 0
5 *246:A *35:10 0
6 *246:A *78:8 2.28537e-05
7 *241:A *246:A 2.24901e-05
8 *243:A *246:A 2.24901e-05
9 *244:A *246:A 0
*RES
1 B[2] *246:A 5.88117 
*END

*D_NET *8 0.00148987
*CONN
*P B[3] I
*I *247:A I *D sky130_fd_sc_hd__clkbuf_2
*CAP
1 B[3] 0.000599242
2 *247:A 0.000599242
3 *247:A *232:B1 0
4 *247:A *74:14 0.000127324
5 *247:A *79:8 0.00010415
6 *242:A *247:A 3.14094e-05
7 *243:A *247:A 2.85068e-05
8 *246:A *247:A 0
*RES
1 B[3] *247:A 7.33097 
*END

*D_NET *9 0.00083395
*CONN
*P P[0] O
*I *255:X O *D sky130_fd_sc_hd__buf_2
*CAP
1 P[0] 0.000391699
2 *255:X 0.000391699
3 P[0] *80:6 5.05521e-05
*RES
1 *255:X P[0] 10.185 
*END

*D_NET *10 0.00117622
*CONN
*P P[1] O
*I *248:X O *D sky130_fd_sc_hd__buf_2
*CAP
1 P[1] 0.000378442
2 *248:X 0.000378442
3 P[1] *189:A_N 0.000353831
4 P[1] *77:73 0
5 *244:A P[1] 3.6993e-05
6 *245:A P[1] 2.85068e-05
*RES
1 *248:X P[1] 9.42697 
*END

*D_NET *11 0.00087017
*CONN
*P P[2] O
*I *249:X O *D sky130_fd_sc_hd__buf_2
*CAP
1 P[2] 0.000432169
2 *249:X 0.000432169
3 P[2] *249:A 5.83121e-06
*RES
1 *249:X P[2] 10.74 
*END

*D_NET *12 0.000471537
*CONN
*P P[3] O
*I *250:X O *D sky130_fd_sc_hd__buf_2
*CAP
1 P[3] 0.00019345
2 *250:X 0.00019345
3 P[3] P[4] 8.4638e-05
*RES
1 *250:X P[3] 4.90503 
*END

*D_NET *13 0.000487602
*CONN
*P P[4] O
*I *251:X O *D sky130_fd_sc_hd__buf_2
*CAP
1 P[4] 0.000201482
2 *251:X 0.000201482
3 P[4] P[5] 0
4 P[4] *239:A 0
5 P[3] P[4] 8.4638e-05
*RES
1 *251:X P[4] 5.16003 
*END

*D_NET *14 0.000516925
*CONN
*P P[5] O
*I *252:X O *D sky130_fd_sc_hd__buf_2
*CAP
1 P[5] 0.000258463
2 *252:X 0.000258463
3 P[5] *230:B 0
4 P[4] P[5] 0
*RES
1 *252:X P[5] 5.41503 
*END

*D_NET *15 0.000590426
*CONN
*P P[6] O
*I *253:X O *D sky130_fd_sc_hd__buf_2
*CAP
1 P[6] 0.000275883
2 *253:X 0.000275883
3 P[6] *235:A 0
4 P[6] *253:A 3.86607e-05
*RES
1 *253:X P[6] 5.92503 
*END

*D_NET *16 0.00127935
*CONN
*P P[7] O
*I *254:X O *D sky130_fd_sc_hd__buf_2
*CAP
1 P[7] 0.000587489
2 *254:X 0.000587489
3 P[7] *233:B 2.05056e-05
4 P[7] *237:B1 4.21757e-05
5 P[7] *254:A 3.00381e-05
6 P[7] *60:8 1.16578e-05
*RES
1 *254:X P[7] 13.38 
*END

*D_NET *19 0.00118054
*CONN
*I *190:B I *D sky130_fd_sc_hd__nor2_1
*I *192:B I *D sky130_fd_sc_hd__or3_1
*I *187:Y O *D sky130_fd_sc_hd__nand2_1
*CAP
1 *190:B 0.000112229
2 *192:B 7.27925e-05
3 *187:Y 0.000141608
4 *19:10 0.000326629
5 *190:B *188:B 0
6 *190:B *190:A 0.000161105
7 *190:B *192:C 1.08758e-05
8 *190:B *193:A 5.29349e-05
9 *190:B *209:B 8.34281e-06
10 *192:B *194:B 7.47215e-05
11 *192:B *209:B 0
12 *192:B *22:10 5.23362e-05
13 *192:B *80:21 5.33085e-05
14 *19:10 *209:B 0
15 *19:10 *22:10 6.21553e-05
16 *19:10 *37:6 2.39856e-05
17 *19:10 *77:27 7.00889e-06
18 *19:10 *77:36 2.05056e-05
*RES
1 *187:Y *19:10 5.61 
2 *19:10 *192:B 4.98 
3 *19:10 *190:B 6.255 
*END

*D_NET *20 0.00256952
*CONN
*I *208:B1 I *D sky130_fd_sc_hd__a31o_1
*I *207:C I *D sky130_fd_sc_hd__and4_1
*I *189:A_N I *D sky130_fd_sc_hd__and3b_1
*I *188:X O *D sky130_fd_sc_hd__and4_1
*CAP
1 *208:B1 5.71933e-05
2 *207:C 6.28654e-05
3 *189:A_N 0.000158178
4 *188:X 0.000304373
5 *20:14 0.00028842
6 *20:6 0.000428943
7 *189:A_N *207:A 4.66108e-05
8 *189:A_N *248:A 0.000200615
9 *189:A_N *77:27 0.000125951
10 *207:C *207:A 3.57349e-05
11 *207:C *77:27 2.16917e-05
12 *208:B1 *207:B 1.26768e-05
13 *208:B1 *79:58 4.38642e-05
14 *20:6 *188:A 9.27255e-06
15 *20:6 *188:B 4.38278e-05
16 *20:6 *192:C 5.83121e-06
17 *20:6 *207:B 2.75229e-05
18 *20:6 *208:A3 1.34503e-05
19 *20:6 *209:B 5.42383e-05
20 *20:6 *79:58 2.34642e-06
21 *20:14 *65:34 0.000114492
22 *20:14 *65:47 2.07184e-05
23 *20:14 *76:14 0.000136877
24 P[1] *189:A_N 0.000353831
*RES
1 *188:X *20:6 5.3275 
2 *20:6 *20:14 5.9125 
3 *20:14 *189:A_N 6.535 
4 *20:14 *207:C 2.755 
5 *20:6 *208:B1 2.9425 
*END

*D_NET *21 0.000985373
*CONN
*I *194:A I *D sky130_fd_sc_hd__xnor2_1
*I *190:Y O *D sky130_fd_sc_hd__nor2_1
*CAP
1 *194:A 0.000372483
2 *190:Y 0.000372483
3 *194:A *193:A 2.05814e-05
4 *194:A *194:B 9.53428e-06
5 *194:A *209:B 8.58181e-05
6 *194:A *249:A 0.000124473
7 *194:A *80:21 0
*RES
1 *190:Y *194:A 12.945 
*END

*D_NET *22 0.00318723
*CONN
*I *197:C I *D sky130_fd_sc_hd__and3_1
*I *202:C_N I *D sky130_fd_sc_hd__or3b_1
*I *192:C I *D sky130_fd_sc_hd__or3_1
*I *194:B I *D sky130_fd_sc_hd__xnor2_1
*I *191:Y O *D sky130_fd_sc_hd__nand2_1
*CAP
1 *197:C 0.000176651
2 *202:C_N 2.90674e-05
3 *192:C 2.38194e-05
4 *194:B 0.000220076
5 *191:Y 0.000101381
6 *22:42 0.000453935
7 *22:10 0.000378005
8 *22:6 0.000483707
9 *192:C *209:B 2.49909e-05
10 *194:B *188:B 3.09233e-05
11 *194:B *65:23 0
12 *194:B *80:6 7.00889e-06
13 *194:B *80:21 8.89221e-05
14 *197:C *197:A 0.000222104
15 *197:C *32:16 4.82863e-05
16 *202:C_N *196:A 9.13949e-06
17 *202:C_N *197:A 3.34938e-05
18 *202:C_N *202:A 4.77045e-05
19 *202:C_N *42:18 1.00889e-05
20 *22:6 *65:80 4.66108e-05
21 *22:6 *73:56 3.0807e-05
22 *22:10 *188:B 0.000150453
23 *22:10 *209:B 0
24 *22:10 *77:55 0.000160658
25 *22:42 *42:18 0.000140631
26 *22:42 *73:56 5.33148e-05
27 *22:42 *77:55 0
28 *190:B *192:C 1.08758e-05
29 *192:B *194:B 7.47215e-05
30 *192:B *22:10 5.23362e-05
31 *194:A *194:B 9.53428e-06
32 *19:10 *22:10 6.21553e-05
33 *20:6 *192:C 5.83121e-06
*RES
1 *191:Y *22:6 3.085 
2 *22:6 *22:10 5.675 
3 *22:10 *194:B 7.545 
4 *22:10 *192:C 4.05 
5 *22:6 *22:42 6.4475 
6 *22:42 *202:C_N 4.5075 
7 *22:42 *197:C 6.6825 
*END

*D_NET *23 0.00116032
*CONN
*I *193:A I *D sky130_fd_sc_hd__inv_2
*I *192:X O *D sky130_fd_sc_hd__or3_1
*CAP
1 *193:A 0.000522327
2 *192:X 0.000522327
3 *193:A *190:A 4.21518e-05
4 *190:B *193:A 5.29349e-05
5 *194:A *193:A 2.05814e-05
*RES
1 *192:X *193:A 10.925 
*END

*D_NET *24 0.00119061
*CONN
*I *238:A I *D sky130_fd_sc_hd__or2_1
*I *228:A1 I *D sky130_fd_sc_hd__a31o_1
*I *217:A I *D sky130_fd_sc_hd__nand2_1
*I *193:Y O *D sky130_fd_sc_hd__inv_2
*CAP
1 *238:A 0
2 *228:A1 5.49789e-05
3 *217:A 0
4 *193:Y 0.000284781
5 *24:10 0.000127723
6 *24:6 0.000357526
7 *228:A1 *218:A 0.000184717
8 *228:A1 *46:10 8.68724e-05
9 *24:10 *218:A 9.50342e-06
10 *24:10 *238:B 7.89767e-05
11 *24:10 *239:A 0
12 *24:10 *46:10 5.53249e-06
*RES
1 *193:Y *24:6 5.5 
2 *24:6 *24:10 3.635 
3 *24:10 *217:A 3.6 
4 *24:10 *228:A1 5.745 
5 *24:6 *238:A 1.6 
*END

*D_NET *25 0.00296756
*CONN
*I *224:A1 I *D sky130_fd_sc_hd__o21a_1
*I *204:A I *D sky130_fd_sc_hd__xor2_1
*I *225:A1 I *D sky130_fd_sc_hd__o211a_1
*I *231:C I *D sky130_fd_sc_hd__and3_1
*I *195:Y O *D sky130_fd_sc_hd__nand2_1
*CAP
1 *224:A1 0
2 *204:A 6.22484e-05
3 *225:A1 0
4 *231:C 1.85643e-05
5 *195:Y 0.000227931
6 *25:37 0.000406529
7 *25:25 0.000630972
8 *25:10 0.000533187
9 *204:A *204:B 0.000203178
10 *204:A *54:8 0.00012657
11 *25:10 *231:A 0.000122435
12 *25:10 *231:B 2.86792e-05
13 *25:10 *48:8 0.000101999
14 *25:10 *48:21 0.000203469
15 *25:37 *204:B 1.60203e-05
16 *25:37 *225:A2 9.53428e-06
17 *25:37 *225:B1 3.00381e-05
18 *25:37 *225:C1 6.48226e-05
19 *25:37 *32:16 0.000151857
20 *25:37 *33:12 0
21 *25:37 *33:21 2.95246e-05
*RES
1 *195:Y *25:10 6.22 
2 *25:10 *231:C 2.125 
3 *25:10 *25:25 6.32 
4 *25:25 *25:37 7.25 
5 *25:37 *225:A1 1.6 
6 *25:37 *204:A 3.775 
7 *25:25 *224:A1 3.6 
*END

*D_NET *26 0.000422116
*CONN
*I *202:A I *D sky130_fd_sc_hd__or3b_1
*I *196:Y O *D sky130_fd_sc_hd__nand2_1
*CAP
1 *202:A 5.37206e-05
2 *196:Y 5.37206e-05
3 *202:A *197:A 6.92444e-05
4 *202:A *197:B 0.000197726
5 *202:C_N *202:A 4.77045e-05
*RES
1 *196:Y *202:A 5.03 
*END

*D_NET *27 0.000461301
*CONN
*I *203:A I *D sky130_fd_sc_hd__xor2_1
*I *197:X O *D sky130_fd_sc_hd__and3_1
*CAP
1 *203:A 7.72812e-05
2 *197:X 7.72812e-05
3 *203:A *197:B 4.82863e-05
4 *203:A *202:B 0.000116853
5 *203:A *32:16 0.000141599
6 *203:A *79:40 0
*RES
1 *197:X *203:A 9.285 
*END

*D_NET *28 0.000332899
*CONN
*I *201:S I *D sky130_fd_sc_hd__mux2_1
*I *198:X O *D sky130_fd_sc_hd__and3_1
*CAP
1 *201:S 0.000147478
2 *198:X 0.000147478
3 *201:S *210:B1 0
4 *201:S *231:B 5.35969e-06
5 *201:S *77:55 3.25831e-05
6 *201:S *79:40 0
*RES
1 *198:X *201:S 9.285 
*END

*D_NET *29 0.00106584
*CONN
*I *232:A1 I *D sky130_fd_sc_hd__a21o_1
*I *221:A I *D sky130_fd_sc_hd__xnor2_1
*I *199:X O *D sky130_fd_sc_hd__and4_1
*CAP
1 *232:A1 7.5625e-05
2 *221:A 3.57729e-05
3 *199:X 0.000179433
4 *29:12 0.000290831
5 *232:A1 *219:A 0
6 *232:A1 *232:A2 0.000183811
7 *232:A1 *232:B1 7.81954e-05
8 *232:A1 *35:10 2.95721e-05
9 *232:A1 *74:14 0
10 *29:12 *219:A 0
11 *29:12 *232:B1 3.64998e-06
12 *29:12 *35:10 0.000119495
13 *29:12 *74:29 0
14 *29:12 *78:8 4.18603e-06
15 *29:12 *78:47 6.5265e-05
*RES
1 *199:X *29:12 9.815 
2 *29:12 *221:A 2.05 
3 *29:12 *232:A1 8 
*END

*D_NET *30 0.000460868
*CONN
*I *201:A0 I *D sky130_fd_sc_hd__mux2_1
*I *200:Y O *D sky130_fd_sc_hd__nand2_1
*CAP
1 *201:A0 0.000131176
2 *200:Y 0.000131176
3 *201:A0 *200:B 0.000198516
*RES
1 *200:Y *201:A0 5.03 
*END

*D_NET *31 0.000717613
*CONN
*I *203:B I *D sky130_fd_sc_hd__xor2_1
*I *202:B I *D sky130_fd_sc_hd__or3b_1
*I *201:X O *D sky130_fd_sc_hd__mux2_1
*CAP
1 *203:B 0
2 *202:B 9.4813e-05
3 *201:X 0.000134377
4 *31:8 0.00022919
5 *202:B *197:B 4.94474e-05
6 *202:B *79:40 0
7 *31:8 *200:A 4.89295e-05
8 *31:8 *200:B 4.40028e-05
9 *203:A *202:B 0.000116853
*RES
1 *201:X *31:8 3.79 
2 *31:8 *202:B 7.43 
3 *31:8 *203:B 1.6 
*END

*D_NET *32 0.00136896
*CONN
*I *225:C1 I *D sky130_fd_sc_hd__o211a_1
*I *224:B1 I *D sky130_fd_sc_hd__o21a_1
*I *202:X O *D sky130_fd_sc_hd__or3b_1
*CAP
1 *225:C1 2.49826e-05
2 *224:B1 0
3 *202:X 0.000372468
4 *32:16 0.000397451
5 *225:C1 *224:A2 4.77719e-05
6 *225:C1 *33:21 7.57202e-05
7 *32:16 *224:A2 4.40028e-05
8 *32:16 *79:40 0
9 *197:C *32:16 4.82863e-05
10 *203:A *32:16 0.000141599
11 *25:37 *225:C1 6.48226e-05
12 *25:37 *32:16 0.000151857
*RES
1 *202:X *32:16 12.335 
2 *32:16 *224:B1 1.6 
3 *32:16 *225:C1 2.74 
*END

*D_NET *33 0.00142794
*CONN
*I *204:B I *D sky130_fd_sc_hd__xor2_1
*I *225:A2 I *D sky130_fd_sc_hd__o211a_1
*I *224:A2 I *D sky130_fd_sc_hd__o21a_1
*I *203:X O *D sky130_fd_sc_hd__xor2_1
*CAP
1 *204:B 8.90531e-05
2 *225:A2 1.85943e-05
3 *224:A2 5.44074e-05
4 *203:X 0.000225969
5 *33:21 0.000192172
6 *33:12 0.000364901
7 *33:12 *225:B1 8.80293e-06
8 *33:21 *225:B1 4.82919e-05
9 *204:A *204:B 0.000203178
10 *225:C1 *224:A2 4.77719e-05
11 *225:C1 *33:21 7.57202e-05
12 *25:37 *204:B 1.60203e-05
13 *25:37 *225:A2 9.53428e-06
14 *25:37 *33:12 0
15 *25:37 *33:21 2.95246e-05
16 *32:16 *224:A2 4.40028e-05
*RES
1 *203:X *33:12 8.795 
2 *33:12 *224:A2 2.74 
3 *33:12 *33:21 1.83 
4 *33:21 *225:A2 1.96 
5 *33:21 *204:B 3.775 
*END

*D_NET *34 0.00139522
*CONN
*I *229:C_N I *D sky130_fd_sc_hd__nor3b_1
*I *214:B I *D sky130_fd_sc_hd__and2b_1
*I *215:A I *D sky130_fd_sc_hd__xnor2_1
*I *204:X O *D sky130_fd_sc_hd__xor2_1
*CAP
1 *229:C_N 1.96054e-05
2 *214:B 0.000132836
3 *215:A 3.45264e-05
4 *204:X 4.20217e-05
5 *34:14 0.000367083
6 *34:8 0.000261347
7 *214:B *214:A_N 3.83041e-05
8 *214:B *43:21 8.65961e-05
9 *214:B *45:10 5.05437e-05
10 *215:A *43:21 8.65905e-05
11 *229:C_N *54:8 3.74161e-05
12 *34:8 *54:8 4.82863e-05
13 *34:14 *229:A 0.000190065
*RES
1 *204:X *34:8 2.41 
2 *34:8 *34:14 8.185 
3 *34:14 *215:A 2.395 
4 *34:14 *214:B 4.39 
5 *34:8 *229:C_N 2.05 
*END

*D_NET *35 0.00219929
*CONN
*I *232:A2 I *D sky130_fd_sc_hd__a21o_1
*I *221:B I *D sky130_fd_sc_hd__xnor2_1
*I *205:X O *D sky130_fd_sc_hd__and4_1
*CAP
1 *232:A2 9.23529e-05
2 *221:B 2.75718e-05
3 *205:X 0.000479549
4 *35:10 0.000599474
5 *35:10 *199:B 0.000115742
6 *35:10 *205:C 4.82919e-05
7 *35:10 *205:D 0.000136877
8 *35:10 *211:A_N 7.23943e-06
9 *35:10 *212:A2 0
10 *35:10 *65:53 4.99619e-05
11 *35:10 *75:12 0.000105849
12 *35:10 *77:73 0.000203503
13 *35:10 *78:8 0
14 *232:A1 *232:A2 0.000183811
15 *232:A1 *35:10 2.95721e-05
16 *246:A *35:10 0
17 *29:12 *35:10 0.000119495
*RES
1 *205:X *35:10 14.355 
2 *35:10 *221:B 4.05 
3 *35:10 *232:A2 5.745 
*END

*D_NET *36 0.00122435
*CONN
*I *207:D I *D sky130_fd_sc_hd__and4_1
*I *208:A3 I *D sky130_fd_sc_hd__a31o_1
*I *206:Y O *D sky130_fd_sc_hd__nand4_1
*CAP
1 *207:D 0
2 *208:A3 0.000143627
3 *206:Y 0.000257947
4 *36:10 0.000401575
5 *208:A3 *188:A 4.99619e-05
6 *208:A3 *188:D 0
7 *208:A3 *207:B 0.000104729
8 *208:A3 *65:23 1.52184e-05
9 *208:A3 *65:34 3.23391e-05
10 *208:A3 *65:47 4.43871e-06
11 *36:10 *188:D 0
12 *36:10 *65:47 6.99988e-05
13 *36:10 *65:49 6.1357e-05
14 *36:10 *65:53 2.75145e-05
15 *36:10 *65:80 4.21973e-05
16 *36:10 *73:28 0
17 *20:6 *208:A3 1.34503e-05
*RES
1 *206:Y *36:10 7.41 
2 *36:10 *208:A3 6.195 
3 *36:10 *207:D 3.6 
*END

*D_NET *37 0.00144986
*CONN
*I *213:B1_N I *D sky130_fd_sc_hd__o21ba_1
*I *209:A_N I *D sky130_fd_sc_hd__nand2b_1
*I *207:X O *D sky130_fd_sc_hd__and4_1
*CAP
1 *213:B1_N 0.000333192
2 *209:A_N 2.09808e-05
3 *207:X 0.000283394
4 *37:6 0.000637567
5 *213:B1_N *209:B 1.12643e-05
6 *213:B1_N *39:10 0
7 *37:6 *77:27 9.11935e-05
8 *37:6 *77:36 4.82863e-05
9 *19:10 *37:6 2.39856e-05
*RES
1 *207:X *37:6 6.19 
2 *37:6 *209:A_N 1.96 
3 *37:6 *213:B1_N 10.61 
*END

*D_NET *38 0.00151963
*CONN
*I *209:B I *D sky130_fd_sc_hd__nand2b_1
*I *208:X O *D sky130_fd_sc_hd__a31o_1
*CAP
1 *209:B 0.000456967
2 *208:X 0.000456967
3 *209:B *188:A 4.99619e-05
4 *209:B *188:B 0.000136104
5 *209:B *190:A 0.000234973
6 *209:B *79:58 0
7 *190:B *209:B 8.34281e-06
8 *192:B *209:B 0
9 *192:C *209:B 2.49909e-05
10 *194:A *209:B 8.58181e-05
11 *213:B1_N *209:B 1.12643e-05
12 *19:10 *209:B 0
13 *20:6 *209:B 5.42383e-05
14 *22:10 *209:B 0
*RES
1 *208:X *209:B 15.4537 
*END

*D_NET *39 0.000973101
*CONN
*I *216:A I *D sky130_fd_sc_hd__xor2_1
*I *213:A1 I *D sky130_fd_sc_hd__o21ba_1
*I *209:Y O *D sky130_fd_sc_hd__nand2b_1
*CAP
1 *216:A 0.000147505
2 *213:A1 5.58765e-05
3 *209:Y 9.40342e-05
4 *39:10 0.000297415
5 *213:A1 *213:A2 5.4155e-06
6 *213:A1 *42:18 1.83756e-05
7 *216:A *216:B 0.000208597
8 *216:A *42:18 1.98258e-05
9 *216:A *43:14 0.000126056
10 *213:B1_N *39:10 0
*RES
1 *209:Y *39:10 6.98 
2 *39:10 *213:A1 2.665 
3 *39:10 *216:A 5.635 
*END

*D_NET *40 0.000205038
*CONN
*I *212:B1 I *D sky130_fd_sc_hd__a31o_1
*I *210:Y O *D sky130_fd_sc_hd__a21oi_1
*CAP
1 *212:B1 4.37645e-05
2 *210:Y 4.37645e-05
3 *212:B1 *212:A1 4.66108e-05
4 *212:B1 *42:18 4.92062e-05
5 *212:B1 *75:38 2.16917e-05
*RES
1 *210:Y *212:B1 4.355 
*END

*D_NET *41 0.000163936
*CONN
*I *212:A3 I *D sky130_fd_sc_hd__a31o_1
*I *211:Y O *D sky130_fd_sc_hd__nand2b_1
*CAP
1 *212:A3 5.54344e-05
2 *211:Y 5.54344e-05
3 *212:A3 *42:18 5.30673e-05
*RES
1 *211:Y *212:A3 4.34 
*END

*D_NET *42 0.00329587
*CONN
*I *216:B I *D sky130_fd_sc_hd__xor2_1
*I *213:A2 I *D sky130_fd_sc_hd__o21ba_1
*I *212:X O *D sky130_fd_sc_hd__a31o_1
*CAP
1 *216:B 0.000200183
2 *213:A2 1.90266e-05
3 *212:X 0.000988073
4 *42:18 0.00120728
5 *216:B *43:14 1.61831e-05
6 *42:18 *200:A 5.78185e-05
7 *42:18 *200:B 8.76499e-05
8 *42:18 *212:A1 1.34594e-05
9 *42:18 *73:56 6.88421e-05
10 *42:18 *75:38 3.99879e-05
11 *42:18 *77:55 1.83847e-05
12 *42:18 *79:40 5.02217e-05
13 *42:18 *79:44 2.35487e-05
14 *202:C_N *42:18 1.00889e-05
15 *212:A3 *42:18 5.30673e-05
16 *212:B1 *42:18 4.92062e-05
17 *213:A1 *213:A2 5.4155e-06
18 *213:A1 *42:18 1.83756e-05
19 *216:A *216:B 0.000208597
20 *216:A *42:18 1.98258e-05
21 *22:42 *42:18 0.000140631
*RES
1 *212:X *42:18 19.535 
2 *42:18 *213:A2 1.96 
3 *42:18 *216:B 5.425 
*END

*D_NET *43 0.00212771
*CONN
*I *214:A_N I *D sky130_fd_sc_hd__and2b_1
*I *229:A I *D sky130_fd_sc_hd__nor3b_1
*I *215:B I *D sky130_fd_sc_hd__xnor2_1
*I *213:X O *D sky130_fd_sc_hd__o21ba_1
*CAP
1 *214:A_N 1.96339e-05
2 *229:A 0.000180272
3 *215:B 0
4 *213:X 0.000502317
5 *43:21 0.000289642
6 *43:14 0.000592053
7 *229:A *230:A 0
8 *229:A *230:B 0
9 *214:B *214:A_N 3.83041e-05
10 *214:B *43:21 8.65961e-05
11 *215:A *43:21 8.65905e-05
12 *216:A *43:14 0.000126056
13 *216:B *43:14 1.61831e-05
14 *34:14 *229:A 0.000190065
*RES
1 *213:X *43:14 13.295 
2 *43:14 *215:B 1.6 
3 *43:14 *43:21 1.83 
4 *43:21 *229:A 9.53 
5 *43:21 *214:A_N 2.05 
*END

*D_NET *44 0.000558432
*CONN
*I *228:B1 I *D sky130_fd_sc_hd__a31o_1
*I *214:X O *D sky130_fd_sc_hd__and2b_1
*CAP
1 *228:B1 0.000195096
2 *214:X 0.000195096
3 *228:B1 *228:A3 6.83659e-05
4 *228:B1 *230:B 9.98747e-05
5 *228:B1 *45:10 0
*RES
1 *214:X *228:B1 10.755 
*END

*D_NET *45 0.0010658
*CONN
*I *228:A2 I *D sky130_fd_sc_hd__a31o_1
*I *218:A I *D sky130_fd_sc_hd__xnor2_1
*I *215:Y O *D sky130_fd_sc_hd__xnor2_1
*CAP
1 *228:A2 0
2 *218:A 0.000179298
3 *215:Y 0.000164517
4 *45:10 0.000343815
5 *218:A *239:A 1.0183e-05
6 *218:A *47:6 0.000123225
7 *214:B *45:10 5.05437e-05
8 *228:A1 *218:A 0.000184717
9 *228:B1 *45:10 0
10 *24:10 *218:A 9.50342e-06
*RES
1 *215:Y *45:10 6.03 
2 *45:10 *218:A 7.23 
3 *45:10 *228:A2 3.6 
*END

*D_NET *46 0.00138716
*CONN
*I *228:A3 I *D sky130_fd_sc_hd__a31o_1
*I *217:B I *D sky130_fd_sc_hd__nand2_1
*I *238:B I *D sky130_fd_sc_hd__or2_1
*I *216:X O *D sky130_fd_sc_hd__xor2_1
*CAP
1 *228:A3 0.000116294
2 *217:B 0
3 *238:B 8.93887e-05
4 *216:X 0.000284701
5 *46:10 0.000172709
6 *46:6 0.000484316
7 *238:B *239:A 0
8 *228:A1 *46:10 8.68724e-05
9 *228:B1 *228:A3 6.83659e-05
10 *24:10 *238:B 7.89767e-05
11 *24:10 *46:10 5.53249e-06
*RES
1 *216:X *46:6 5.5 
2 *46:6 *46:10 3.89 
3 *46:10 *238:B 5.49 
4 *46:10 *217:B 3.6 
5 *46:6 *228:A3 3.445 
*END

*D_NET *47 0.000646094
*CONN
*I *218:B I *D sky130_fd_sc_hd__xnor2_1
*I *239:A I *D sky130_fd_sc_hd__and2_1
*I *217:Y O *D sky130_fd_sc_hd__nand2_1
*CAP
1 *218:B 0
2 *239:A 0.000149206
3 *217:Y 0.000107137
4 *47:6 0.000256343
5 P[4] *239:A 0
6 *218:A *239:A 1.0183e-05
7 *218:A *47:6 0.000123225
8 *238:B *239:A 0
9 *24:10 *239:A 0
*RES
1 *217:Y *47:6 3.43 
2 *47:6 *239:A 8 
3 *47:6 *218:B 1.6 
*END

*D_NET *48 0.0033155
*CONN
*I *237:C1 I *D sky130_fd_sc_hd__a211o_1
*I *222:A_N I *D sky130_fd_sc_hd__and4bb_1
*I *220:A_N I *D sky130_fd_sc_hd__and3b_1
*I *219:X O *D sky130_fd_sc_hd__and4_1
*CAP
1 *237:C1 0.000299942
2 *222:A_N 0.000250751
3 *220:A_N 0
4 *219:X 0.000120083
5 *48:21 0.00075281
6 *48:8 0.0003222
7 *222:A_N *223:B 2.4269e-05
8 *222:A_N *79:38 0.000357441
9 *237:C1 *237:A1 5.79555e-05
10 *237:C1 *52:10 0.00027559
11 *48:8 *195:A 0.000164874
12 *48:8 *195:B 3.26889e-05
13 *48:8 *220:B 1.88068e-05
14 *48:8 *74:77 4.60584e-05
15 *48:21 *220:B 9.66021e-05
16 *48:21 *223:A 0.000115614
17 *48:21 *231:B 4.88563e-05
18 *48:21 *79:38 8.09021e-06
19 *48:21 *79:40 1.7396e-05
20 *25:10 *48:8 0.000101999
21 *25:10 *48:21 0.000203469
*RES
1 *219:X *48:8 4.735 
2 *48:8 *220:A_N 1.6 
3 *48:8 *48:21 9.175 
4 *48:21 *222:A_N 6.67 
5 *48:21 *237:C1 11.045 
*END

*D_NET *49 0.000257626
*CONN
*I *223:A I *D sky130_fd_sc_hd__xor2_1
*I *220:X O *D sky130_fd_sc_hd__and3b_1
*CAP
1 *223:A 3.95681e-05
2 *220:X 3.95681e-05
3 *223:A *79:38 6.28765e-05
4 *48:21 *223:A 0.000115614
*RES
1 *220:X *223:A 8.58 
*END

*D_NET *50 0.00143739
*CONN
*I *223:B I *D sky130_fd_sc_hd__xor2_1
*I *222:B_N I *D sky130_fd_sc_hd__and4bb_1
*I *221:Y O *D sky130_fd_sc_hd__xnor2_1
*CAP
1 *223:B 0.000210432
2 *222:B_N 0
3 *221:Y 0.000203119
4 *50:8 0.000413551
5 *223:B *79:38 0.000354719
6 *50:8 *232:B1 1.7386e-05
7 *50:8 *74:14 3.00381e-05
8 *50:8 *74:27 9.80032e-06
9 *50:8 *79:38 0.000174076
10 *222:A_N *223:B 2.4269e-05
*RES
1 *221:Y *50:8 5.17 
2 *50:8 *222:B_N 1.6 
3 *50:8 *223:B 5.77 
*END

*D_NET *51 0.000391765
*CONN
*I *232:B1 I *D sky130_fd_sc_hd__a21o_1
*I *222:X O *D sky130_fd_sc_hd__and4bb_1
*CAP
1 *232:B1 0.000128875
2 *222:X 0.000128875
3 *232:B1 *74:14 3.47837e-05
4 *232:A1 *232:B1 7.81954e-05
5 *247:A *232:B1 0
6 *29:12 *232:B1 3.64998e-06
7 *50:8 *232:B1 1.7386e-05
*RES
1 *222:X *232:B1 9.63 
*END

*D_NET *52 0.00183001
*CONN
*I *226:A I *D sky130_fd_sc_hd__nor2_1
*I *225:B1 I *D sky130_fd_sc_hd__o211a_1
*I *223:X O *D sky130_fd_sc_hd__xor2_1
*CAP
1 *226:A 2.32169e-05
2 *225:B1 0.000164204
3 *223:X 0.000248746
4 *52:10 0.000436167
5 *225:B1 *226:B 0.000143266
6 *226:A *55:8 2.75229e-05
7 *52:10 *233:A 4.66108e-05
8 *52:10 *237:A1 2.92496e-05
9 *52:10 *59:12 0.000348302
10 *237:C1 *52:10 0.00027559
11 *25:37 *225:B1 3.00381e-05
12 *33:12 *225:B1 8.80293e-06
13 *33:21 *225:B1 4.82919e-05
*RES
1 *223:X *52:10 9.645 
2 *52:10 *225:B1 7.005 
3 *52:10 *226:A 4.05 
*END

*D_NET *53 0.000279617
*CONN
*I *226:B I *D sky130_fd_sc_hd__nor2_1
*I *224:X O *D sky130_fd_sc_hd__o21a_1
*CAP
1 *226:B 6.81753e-05
2 *224:X 6.81753e-05
3 *225:B1 *226:B 0.000143266
*RES
1 *224:X *226:B 8.835 
*END

*D_NET *54 0.000935693
*CONN
*I *227:A I *D sky130_fd_sc_hd__nor2_1
*I *229:B I *D sky130_fd_sc_hd__nor3b_1
*I *225:X O *D sky130_fd_sc_hd__o211a_1
*CAP
1 *227:A 5.18298e-05
2 *229:B 0
3 *225:X 0.000265747
4 *54:8 0.000317577
5 *227:A *227:B 8.8266e-05
6 *54:8 *227:B 0
7 *204:A *54:8 0.00012657
8 *229:C_N *54:8 3.74161e-05
9 *34:8 *54:8 4.82863e-05
*RES
1 *225:X *54:8 5.86 
2 *54:8 *229:B 1.6 
3 *54:8 *227:A 2.74 
*END

*D_NET *55 0.00251437
*CONN
*I *235:A I *D sky130_fd_sc_hd__nor3_1
*I *234:A1 I *D sky130_fd_sc_hd__o21a_1
*I *227:B I *D sky130_fd_sc_hd__nor2_1
*I *226:Y O *D sky130_fd_sc_hd__nor2_1
*CAP
1 *235:A 0.000154013
2 *234:A1 0
3 *227:B 0.000204181
4 *226:Y 0.000603657
5 *55:23 0.000234833
6 *55:8 0.000888657
7 *227:B *230:A 2.11084e-05
8 *227:B *58:12 0.000135879
9 *235:A *236:A 4.82919e-05
10 *235:A *236:B 3.00381e-05
11 *235:A *58:12 1.50359e-05
12 *235:A *62:8 0
13 *55:23 *58:12 6.28843e-05
14 *55:23 *62:8 0
15 P[6] *235:A 0
16 *226:A *55:8 2.75229e-05
17 *227:A *227:B 8.8266e-05
18 *54:8 *227:B 0
*RES
1 *226:Y *55:8 10.26 
2 *55:8 *227:B 8.1 
3 *55:8 *55:23 1.38 
4 *55:23 *234:A1 3.6 
5 *55:23 *235:A 6.165 
*END

*D_NET *56 0.000392677
*CONN
*I *230:A I *D sky130_fd_sc_hd__xor2_1
*I *227:Y O *D sky130_fd_sc_hd__nor2_1
*CAP
1 *230:A 0.000185784
2 *227:Y 0.000185784
3 *227:B *230:A 2.11084e-05
4 *229:A *230:A 0
*RES
1 *227:Y *230:A 9.72 
*END

*D_NET *57 0.000628663
*CONN
*I *230:B I *D sky130_fd_sc_hd__xor2_1
*I *228:X O *D sky130_fd_sc_hd__a31o_1
*CAP
1 *230:B 0.000264394
2 *228:X 0.000264394
3 P[5] *230:B 0
4 *228:B1 *230:B 9.98747e-05
5 *229:A *230:B 0
*RES
1 *228:X *230:B 11.415 
*END

*D_NET *58 0.000908497
*CONN
*I *235:B I *D sky130_fd_sc_hd__nor3_1
*I *234:A2 I *D sky130_fd_sc_hd__o21a_1
*I *229:Y O *D sky130_fd_sc_hd__nor3b_1
*CAP
1 *235:B 0
2 *234:A2 7.69501e-05
3 *229:Y 0.000201651
4 *58:12 0.000278601
5 *234:A2 *234:B1 5.4155e-06
6 *234:A2 *235:C 6.4156e-05
7 *234:A2 *236:A 1.96369e-05
8 *234:A2 *236:B 4.82863e-05
9 *227:B *58:12 0.000135879
10 *235:A *58:12 1.50359e-05
11 *55:23 *58:12 6.28843e-05
*RES
1 *229:Y *58:12 9.47 
2 *58:12 *234:A2 3.46 
3 *58:12 *235:B 1.6 
*END

*D_NET *59 0.00132713
*CONN
*I *233:A I *D sky130_fd_sc_hd__xor2_1
*I *237:A1 I *D sky130_fd_sc_hd__a211o_1
*I *231:X O *D sky130_fd_sc_hd__and3_1
*CAP
1 *233:A 4.31873e-05
2 *237:A1 8.78657e-05
3 *231:X 0.000242133
4 *59:12 0.000373186
5 *233:A *233:B 7.00889e-06
6 *237:A1 *233:B 9.16315e-05
7 *237:C1 *237:A1 5.79555e-05
8 *52:10 *233:A 4.66108e-05
9 *52:10 *237:A1 2.92496e-05
10 *52:10 *59:12 0.000348302
*RES
1 *231:X *59:12 10.19 
2 *59:12 *237:A1 8 
3 *59:12 *233:A 2.395 
*END

*D_NET *60 0.00229728
*CONN
*I *233:B I *D sky130_fd_sc_hd__xor2_1
*I *237:A2 I *D sky130_fd_sc_hd__a211o_1
*I *232:X O *D sky130_fd_sc_hd__a21o_1
*CAP
1 *233:B 0.000157711
2 *237:A2 0
3 *232:X 0.000858682
4 *60:8 0.00101639
5 *233:B *237:B1 4.82863e-05
6 *60:8 *237:B1 6.70322e-05
7 *60:8 *74:14 1.83756e-05
8 P[7] *233:B 2.05056e-05
9 P[7] *60:8 1.16578e-05
10 *233:A *233:B 7.00889e-06
11 *237:A1 *233:B 9.16315e-05
*RES
1 *232:X *60:8 13.795 
2 *60:8 *237:A2 1.6 
3 *60:8 *233:B 8.75 
*END

*D_NET *61 0.000944685
*CONN
*I *235:C I *D sky130_fd_sc_hd__nor3_1
*I *234:B1 I *D sky130_fd_sc_hd__o21a_1
*I *233:X O *D sky130_fd_sc_hd__xor2_1
*CAP
1 *235:C 5.03596e-05
2 *234:B1 1.88809e-05
3 *233:X 0.000239385
4 *61:6 0.000308626
5 *235:C *236:A 0.000171266
6 *61:6 *236:A 8.65961e-05
7 *234:A2 *234:B1 5.4155e-06
8 *234:A2 *235:C 6.4156e-05
*RES
1 *233:X *61:6 5.5 
2 *61:6 *234:B1 1.96 
3 *61:6 *235:C 3.445 
*END

*D_NET *62 0.00204264
*CONN
*I *237:B1 I *D sky130_fd_sc_hd__a211o_1
*I *236:A I *D sky130_fd_sc_hd__nor2_1
*I *234:X O *D sky130_fd_sc_hd__o21a_1
*CAP
1 *237:B1 0.00047445
2 *236:A 0.000222864
3 *234:X 4.1676e-05
4 *62:8 0.000738991
5 *236:A *236:B 3.14081e-05
6 *237:B1 *254:A 4.99619e-05
7 P[7] *237:B1 4.21757e-05
8 *233:B *237:B1 4.82863e-05
9 *234:A2 *236:A 1.96369e-05
10 *235:A *236:A 4.82919e-05
11 *235:A *62:8 0
12 *235:C *236:A 0.000171266
13 *55:23 *62:8 0
14 *60:8 *237:B1 6.70322e-05
15 *61:6 *236:A 8.65961e-05
*RES
1 *234:X *62:8 4.215 
2 *62:8 *236:A 7.98 
3 *62:8 *237:B1 11.565 
*END

*D_NET *63 0.000524306
*CONN
*I *236:B I *D sky130_fd_sc_hd__nor2_1
*I *235:Y O *D sky130_fd_sc_hd__nor3_1
*CAP