*SPEF "ieee 1481-1999"
*DESIGN "mult4_SarsaNada_e8_SARSA_RUIDO_e9_SARSA_RUIDO_e9_SARSA_RUIDO_e9"
*DATE "14:38:43 Tuesday September 16, 2025"
*VENDOR "The OpenROAD Project"
*PROGRAM "OpenROAD"
*VERSION "edf00dff99f6c40d67a30c0e22a8191c5d2ed9d6"
*DESIGN_FLOW "NAME_SCOPE LOCAL" "PIN_CAP NONE"
*DIVIDER /
*DELIMITER :
*BUS_DELIMITER []
*T_UNIT 1 NS
*C_UNIT 1 PF
*R_UNIT 1 OHM
*L_UNIT 1 HENRY

*NAME_MAP
*1 A[0]
*2 A[1]
*3 A[2]
*4 A[3]
*5 B[0]
*6 B[1]
*7 B[2]
*8 B[3]
*9 net16
*10 P[1]
*11 P[2]
*12 P[3]
*13 P[4]
*14 P[5]
*15 P[6]
*16 P[7]
*19 _00_
*20 _01_
*21 _02_
*22 _03_
*23 _04_
*24 _05_
*25 _06_
*26 _07_
*27 _08_
*28 _09_
*29 _10_
*30 _11_
*31 _12_
*32 _13_
*33 _14_
*34 _15_
*35 _16_
*36 _17_
*37 _18_
*38 _19_
*39 _20_
*40 _21_
*41 _22_
*42 _23_
*43 _24_
*44 net1
*45 net10
*46 net11
*47 net12
*48 net13
*49 net14
*50 net15
*51 net2
*52 net3
*53 net4
*54 net5
*55 net6
*56 net7
*57 net8
*58 net9
*59 FILLER_0_13
*60 FILLER_0_25
*61 FILLER_0_29
*62 FILLER_0_34
*63 FILLER_0_42
*64 FILLER_0_54
*65 FILLER_0_57
*66 FILLER_0_69
*67 FILLER_1_15
*68 FILLER_1_23
*69 FILLER_1_37
*70 FILLER_1_49
*71 FILLER_1_55
*72 FILLER_1_57
*73 FILLER_1_69
*74 FILLER_1_7
*75 FILLER_1_77
*76 FILLER_2_22
*77 FILLER_2_29
*78 FILLER_2_51
*79 FILLER_2_56
*80 FILLER_2_68
*81 FILLER_2_7
*82 FILLER_2_76
*83 FILLER_3_11
*84 FILLER_3_16
*85 FILLER_3_28
*86 FILLER_3_3
*87 FILLER_3_34
*88 FILLER_3_46
*89 FILLER_3_54
*90 FILLER_3_57
*91 FILLER_3_69
*92 FILLER_4_19
*93 FILLER_4_27
*94 FILLER_4_29
*95 FILLER_4_40
*96 FILLER_4_52
*97 FILLER_4_64
*98 FILLER_4_7
*99 FILLER_4_76
*100 FILLER_4_80
*101 FILLER_5_17
*102 FILLER_5_29
*103 FILLER_5_41
*104 FILLER_5_53
*105 FILLER_5_6
*106 FILLER_5_61
*107 FILLER_5_73
*108 FILLER_6_24
*109 FILLER_6_29
*110 FILLER_6_35
*111 FILLER_6_41
*112 FILLER_6_49
*113 FILLER_6_59
*114 FILLER_6_71
*115 FILLER_7_13
*116 FILLER_7_32
*117 FILLER_7_40
*118 FILLER_7_55
*119 FILLER_7_62
*120 FILLER_7_7
*121 FILLER_7_70
*122 FILLER_7_76
*123 FILLER_8_15
*124 FILLER_8_3
*125 FILLER_8_36
*126 FILLER_8_51
*127 FILLER_8_63
*128 FILLER_8_75
*129 FILLER_9_18
*130 FILLER_9_29
*131 FILLER_9_35
*132 FILLER_9_47
*133 FILLER_9_55
*134 FILLER_9_57
*135 FILLER_9_6
*136 FILLER_9_69
*137 PHY_EDGE_ROW_0_Left_10
*138 PHY_EDGE_ROW_0_Right_0
*139 PHY_EDGE_ROW_1_Left_11
*140 PHY_EDGE_ROW_1_Right_1
*141 PHY_EDGE_ROW_2_Left_12
*142 PHY_EDGE_ROW_2_Right_2
*143 PHY_EDGE_ROW_3_Left_13
*144 PHY_EDGE_ROW_3_Right_3
*145 PHY_EDGE_ROW_4_Left_14
*146 PHY_EDGE_ROW_4_Right_4
*147 PHY_EDGE_ROW_5_Left_15
*148 PHY_EDGE_ROW_5_Right_5
*149 PHY_EDGE_ROW_6_Left_16
*150 PHY_EDGE_ROW_6_Right_6
*151 PHY_EDGE_ROW_7_Left_17
*152 PHY_EDGE_ROW_7_Right_7
*153 PHY_EDGE_ROW_8_Left_18
*154 PHY_EDGE_ROW_8_Right_8
*155 PHY_EDGE_ROW_9_Left_19
*156 PHY_EDGE_ROW_9_Right_9
*157 TAP_TAPCELL_ROW_0_20
*158 TAP_TAPCELL_ROW_0_21
*159 TAP_TAPCELL_ROW_1_22
*160 TAP_TAPCELL_ROW_2_23
*161 TAP_TAPCELL_ROW_3_24
*162 TAP_TAPCELL_ROW_4_25
*163 TAP_TAPCELL_ROW_5_26
*164 TAP_TAPCELL_ROW_6_27
*165 TAP_TAPCELL_ROW_7_28
*166 TAP_TAPCELL_ROW_8_29
*167 TAP_TAPCELL_ROW_9_30
*168 TAP_TAPCELL_ROW_9_31
*169 _25_
*170 _26_
*171 _27_
*172 _28_
*173 _29_
*174 _30_
*175 _31_
*176 _32_
*177 _33_
*178 _34_
*179 _35_
*180 _36_
*181 _37_
*182 _38_
*183 _39_
*184 _40_
*185 _41_
*186 _42_
*187 _43_
*188 _44_
*189 _45_
*190 _46_
*191 _47_
*192 _48_
*193 _49_
*194 _50_
*195 _51_
*196 _52_
*197 _53_
*198 _54_
*199 _55_
*200 _57_
*201 input1
*202 input2
*203 input3
*204 input4
*205 input5
*206 input6
*207 input7
*208 input8
*209 mult4_SarsaNada_e8_SARSA_RUIDO_e9_SARSA_RUIDO_e9_SARSA_RUIDO_e9_16
*210 output10
*211 output11
*212 output12
*213 output13
*214 output14
*215 output15
*216 output9

*PORTS
A[0] I
A[1] I
A[2] I
A[3] I
B[0] I
B[1] I
B[2] I
B[3] I
P[0] O
P[1] O
P[2] O
P[3] O
P[4] O
P[5] O
P[6] O
P[7] O

*D_NET *1 0.000642939
*CONN
*P A[0] I
*I *201:A I *D sky130_fd_sc_hd__dlymetal6s2s_1
*CAP
1 A[0] 0.00030788
2 *201:A 0.00030788
3 *201:A *203:A 2.71788e-05
*RES
1 A[0] *201:A 21.0874 
*END

*D_NET *2 0.000532925
*CONN
*P A[1] I
*I *202:A I *D sky130_fd_sc_hd__clkbuf_1
*CAP
1 A[1] 0.000237885
2 *202:A 0.000237885
3 *202:A *179:B2 0
4 *202:A *204:A 0
5 *202:A *207:A 2.87684e-05
6 *202:A *208:A 2.25951e-05
7 *202:A *56:53 5.7903e-06
*RES
1 A[1] *202:A 18.73 
*END

*D_NET *3 0.000667883
*CONN
*P A[2] I
*I *203:A I *D sky130_fd_sc_hd__clkbuf_2
*CAP
1 A[2] 0.000306763
2 *203:A 0.000306763
3 *203:A P[1] 2.71788e-05
4 *201:A *203:A 2.71788e-05
*RES
1 A[2] *203:A 21.1946 
*END

*D_NET *4 0.000691076
*CONN
*P A[3] I
*I *204:A I *D sky130_fd_sc_hd__buf_1
*CAP
1 A[3] 0.00030275
2 *204:A 0.00030275
3 *204:A *208:A 3.19385e-05
4 *204:A *53:12 5.36379e-05
5 *202:A *204:A 0
*RES
1 A[3] *204:A 20.2479 
*END

*D_NET *5 0.000944346
*CONN
*P B[0] I
*I *205:A I *D sky130_fd_sc_hd__clkbuf_1
*CAP
1 B[0] 0.000462528
2 *205:A 0.000462528
3 *205:A P[2] 0
4 *205:A *169:A 1.92905e-05
*RES
1 B[0] *205:A 22.6571 
*END

*D_NET *6 0.000730302
*CONN
*P B[1] I
*I *206:A I *D sky130_fd_sc_hd__clkbuf_2
*CAP
1 B[1] 0.000335159
2 *206:A 0.000335159
3 *206:A P[1] 2.99915e-05
4 *206:A *207:A 2.99915e-05
5 *206:A *56:14 0
*RES
1 B[1] *206:A 21.8017 
*END

*D_NET *7 0.000670164
*CONN
*P B[2] I
*I *207:A I *D sky130_fd_sc_hd__buf_1
*CAP
1 B[2] 0.000305702
2 *207:A 0.000305702
3 *207:A *56:14 0
4 *202:A *207:A 2.87684e-05
5 *206:A *207:A 2.99915e-05
*RES
1 B[2] *207:A 21.391 
*END

*D_NET *8 0.00063765
*CONN
*P B[3] I
*I *208:A I *D sky130_fd_sc_hd__clkbuf_2
*CAP
1 B[3] 0.000291558
2 *208:A 0.000291558
3 *202:A *208:A 2.25951e-05
4 *204:A *208:A 3.19385e-05
*RES
1 B[3] *208:A 20.891 
*END

*D_NET *9 0.000450325
*CONN
*P P[0] O
*I *209:LO O *D sky130_fd_sc_hd__conb_1
*CAP
1 P[0] 0.000186854
2 *209:LO 0.000186854
3 P[0] P[3] 7.66163e-05
*RES
1 *209:LO P[0] 18.1229 
*END

*D_NET *10 0.000646764
*CONN
*P P[1] O
*I *216:X O *D sky130_fd_sc_hd__buf_2
*CAP
1 P[1] 0.000294797
2 *216:X 0.000294797
3 *203:A P[1] 2.71788e-05
4 *206:A P[1] 2.99915e-05
*RES
1 *216:X P[1] 20.891 
*END

*D_NET *11 0.000950873
*CONN
*P P[2] O
*I *210:X O *D sky130_fd_sc_hd__buf_2
*CAP
1 P[2] 0.000475437
2 *210:X 0.000475437
3 *205:A P[2] 0
*RES
1 *210:X P[2] 22.05 
*END

*D_NET *12 0.000526265
*CONN
*P P[3] O
*I *211:X O *D sky130_fd_sc_hd__buf_2
*CAP
1 P[3] 0.000224824
2 *211:X 0.000224824
3 P[0] P[3] 7.66163e-05
*RES
1 *211:X P[3] 18.4985 
*END

*D_NET *13 0.000501081
*CONN
*P P[4] O
*I *212:X O *D sky130_fd_sc_hd__buf_2
*CAP
1 P[4] 0.000202418
2 *212:X 0.000202418
3 P[4] P[5] 8.40493e-05
4 P[4] *212:A 1.21955e-05
*RES
1 *212:X P[4] 18.1949 
*END

*D_NET *14 0.00048928
*CONN
*P P[5] O
*I *213:X O *D sky130_fd_sc_hd__buf_2
*CAP
1 P[5] 0.000202616
2 *213:X 0.000202616
3 P[4] P[5] 8.40493e-05
*RES
1 *213:X P[5] 18.1949 
*END

*D_NET *15 0.00101254
*CONN
*P P[6] O
*I *214:X O *D sky130_fd_sc_hd__buf_2
*CAP
1 P[6] 0.000506268
2 *214:X 0.000506268
3 P[6] P[7] 0
*RES
1 *214:X P[6] 23.3893 
*END

*D_NET *16 0.000951893
*CONN
*P P[7] O
*I *215:X O *D sky130_fd_sc_hd__buf_2
*CAP
1 P[7] 0.000475946
2 *215:X 0.000475946
3 P[6] P[7] 0
*RES
1 *215:X P[7] 23.2643 
*END

*D_NET *19 0.00121317
*CONN
*I *173:B1 I *D sky130_fd_sc_hd__a21oi_1
*I *174:A I *D sky130_fd_sc_hd__and3_1
*I *169:X O *D sky130_fd_sc_hd__and2_1
*CAP
1 *173:B1 0.000261971
2 *174:A 0.000157983
3 *169:X 0
4 *19:4 0.000419954
5 *173:B1 *173:A1 0.000259934
6 *173:B1 *175:A 4.85049e-06
7 *173:B1 *52:47 7.51813e-06
8 *174:A *173:A1 0.00010096
9 *174:A *173:A2 0
10 *174:A *52:12 0
*RES
1 *169:X *19:4 9.3 
2 *19:4 *174:A 20.5857 
3 *19:4 *173:B1 13.1393 
*END

*D_NET *20 0.00215654
*CONN
*I *198:B1 I *D sky130_fd_sc_hd__a211oi_1
*I *185:A1 I *D sky130_fd_sc_hd__o211a_1
*I *170:X O *D sky130_fd_sc_hd__and4_1
*CAP
1 *198:B1 6.30158e-05
2 *185:A1 0
3 *170:X 0.000320957
4 *20:8 0.000383973
5 *198:B1 *198:A2 0.000186765
6 *198:B1 *198:C1 8.66505e-05
7 *198:B1 *199:A 5.52302e-05
8 *198:B1 *32:18 2.41665e-05
9 *198:B1 *34:8 0.000139202
10 *20:8 *174:B 0.000105163
11 *20:8 *184:B1 2.39313e-05
12 *20:8 *198:A2 8.78754e-05
13 *20:8 *198:C1 5.49544e-05
14 *20:8 *24:14 4.1518e-05
15 *20:8 *33:8 3.08664e-05
16 *20:8 *44:58 0.000404707
17 *20:8 *44:69 5.52238e-05
18 *20:8 *52:66 9.23451e-05
*RES
1 *170:X *20:8 18.0679 
2 *20:8 *185:A1 9.3 
3 *20:8 *198:B1 12.3 
*END

*D_NET *21 0.002735
*CONN
*I *174:B I *D sky130_fd_sc_hd__and3_1
*I *173:A1 I *D sky130_fd_sc_hd__a21oi_1
*I *171:Y O *D sky130_fd_sc_hd__nand4_1
*CAP
1 *174:B 0.000449585
2 *173:A1 0.000283833
3 *171:Y 0
4 *21:4 0.000733417
5 *173:A1 *171:A 1.33343e-05
6 *173:A1 *173:A2 9.90431e-05
7 *173:A1 *52:6 7.03295e-05
8 *173:A1 *52:39 0.00018233
9 *173:A1 *52:47 2.24763e-05
10 *174:B *171:A 3.34672e-05
11 *174:B *200:A 3.17148e-05
12 *174:B *44:36 5.33005e-05
13 *174:B *44:51 0.000183726
14 *174:B *44:58 2.95641e-05
15 *174:B *52:12 5.02919e-05
16 *174:B *55:38 3.2534e-05
17 *173:B1 *173:A1 0.000259934
18 *174:A *173:A1 0.00010096
19 *20:8 *174:B 0.000105163
*RES
1 *171:Y *21:4 9.3 
2 *21:4 *173:A1 17.6929 
3 *21:4 *174:B 25.4964 
*END

*D_NET *22 0.00179276
*CONN
*I *173:A2 I *D sky130_fd_sc_hd__a21oi_1
*I *174:C I *D sky130_fd_sc_hd__and3_1
*I *172:X O *D sky130_fd_sc_hd__a22o_1
*CAP
1 *173:A2 0.000226075
2 *174:C 0
3 *172:X 0.000335307
4 *22:14 0.000561382
5 *173:A2 *184:B1 9.25014e-06
6 *173:A2 *24:14 5.52238e-05
7 *173:A2 *44:58 0.000119219
8 *173:A2 *52:47 3.4879e-05
9 *22:14 *170:A 5.52302e-05
10 *22:14 *170:B 4.58976e-05
11 *22:14 *170:C 2.13419e-05
12 *22:14 *44:51 1.21289e-05
13 *22:14 *44:58 0.000217779
14 *173:A1 *173:A2 9.90431e-05
15 *174:A *173:A2 0
*RES
1 *172:X *22:14 15.1214 
2 *22:14 *174:C 9.3 
3 *22:14 *173:A2 23.0321 
*END

*D_NET *23 0.000167458
*CONN
*I *175:A I *D sky130_fd_sc_hd__nor2_1
*I *173:Y O *D sky130_fd_sc_hd__a21oi_1
*CAP
1 *175:A 6.72484e-05
2 *173:Y 6.72484e-05
3 *175:A *169:B 0
4 *175:A *52:47 2.81111e-05
5 *173:B1 *175:A 4.85049e-06
*RES
1 *173:Y *175:A 19.9929 
*END

*D_NET *24 0.00244429
*CONN
*I *198:C1 I *D sky130_fd_sc_hd__a211oi_1
*I *185:A2 I *D sky130_fd_sc_hd__o211a_1
*I *175:B I *D sky130_fd_sc_hd__nor2_1
*I *174:X O *D sky130_fd_sc_hd__and3_1
*CAP
1 *198:C1 0.000262082
2 *185:A2 0
3 *175:B 0
4 *174:X 0.000340721
5 *24:25 0.000467918
6 *24:14 0.000546557
7 *198:C1 *199:A 1.74352e-05
8 *198:C1 *32:10 4.73656e-05
9 *198:C1 *34:8 0.000139202
10 *24:14 *184:B1 0.000144497
11 *24:14 *210:A 4.50349e-06
12 *24:14 *44:58 1.5424e-05
13 *24:14 *52:47 0.00012573
14 *24:25 *210:A 2.83569e-05
15 *24:25 *32:10 1.02504e-05
16 *24:25 *32:18 5.59013e-05
17 *173:A2 *24:14 5.52238e-05
18 *198:B1 *198:C1 8.66505e-05
19 *20:8 *198:C1 5.49544e-05
20 *20:8 *24:14 4.1518e-05
*RES
1 *174:X *24:14 23.8893 
2 *24:14 *175:B 9.3 
3 *24:14 *24:25 8.51786 
4 *24:25 *185:A2 13.8 
5 *24:25 *198:C1 18.7821 
*END

*D_NET *25 0.000431482
*CONN
*I *181:A I *D sky130_fd_sc_hd__xor2_1
*I *176:Y O *D sky130_fd_sc_hd__nand2_1
*CAP
1 *181:A 0.00019109
2 *176:Y 0.00019109
3 *181:A *180:A2 0
4 *181:A *189:A 1.74352e-05
5 *181:A *38:14 0
6 *181:A *52:25 3.18676e-05
*RES
1 *176:Y *181:A 30.4929 
*END

*D_NET *26 0.000400387
*CONN
*I *197:A I *D sky130_fd_sc_hd__xnor2_1
*I *177:Y O *D sky130_fd_sc_hd__nand2_1
*CAP
1 *197:A 0.000129481
2 *177:Y 0.000129481
3 *197:A *197:B 1.37292e-05
4 *197:A *214:A 3.69047e-06
5 *197:A *42:10 2.56601e-05
6 *197:A *57:47 9.83442e-05
*RES
1 *177:Y *197:A 30.1893 
*END

*D_NET *27 0.00105018
*CONN
*I *180:A2 I *D sky130_fd_sc_hd__a21bo_1
*I *190:B1 I *D sky130_fd_sc_hd__a32o_1
*I *178:X O *D sky130_fd_sc_hd__and3_1
*CAP
1 *180:A2 0.000227984
2 *190:B1 5.85007e-06
3 *178:X 0.000144713
4 *27:12 0.000378548
5 *180:A2 *177:B 3.18676e-05
6 *180:A2 *180:B1_N 4.25716e-05
7 *180:A2 *38:14 0
8 *180:A2 *53:42 7.77751e-05
9 *180:A2 *57:10 0
10 *180:A2 *57:34 0
11 *190:B1 *190:A3 2.39852e-05
12 *190:B1 *56:53 1.43404e-05
13 *27:12 *178:C 0
14 *27:12 *52:12 0.000102545
15 *27:12 *57:10 0
16 *181:A *180:A2 0
*RES
1 *178:X *27:12 16.1036 
2 *27:12 *190:B1 14.0411 
3 *27:12 *180:A2 18.425 
*END

*D_NET *28 0.000978105
*CONN
*I *180:B1_N I *D sky130_fd_sc_hd__a21bo_1
*I *190:A3 I *D sky130_fd_sc_hd__a32o_1
*I *179:X O *D sky130_fd_sc_hd__a22o_1
*CAP
1 *180:B1_N 0.000108295
2 *190:A3 0.000172618
3 *179:X 0
4 *28:4 0.000280913
5 *180:B1_N *53:42 9.90431e-05
6 *180:B1_N *57:10 3.92757e-05
7 *180:B1_N *57:34 2.84494e-05
8 *190:A3 *176:A 1.21258e-05
9 *190:A3 *190:B2 6.75704e-05
10 *190:A3 *52:25 6.46481e-05
11 *190:A3 *56:53 3.86093e-05
12 *180:A2 *180:B1_N 4.25716e-05
13 *190:B1 *190:A3 2.39852e-05
*RES
1 *179:X *28:4 9.3 
2 *28:4 *190:A3 13.05 
3 *28:4 *180:B1_N 20.8893 
*END

*D_NET *29 0.000165058
*CONN
*I *181:B I *D sky130_fd_sc_hd__xor2_1
*I *180:X O *D sky130_fd_sc_hd__a21bo_1
*CAP
1 *181:B 3.20492e-05
2 *180:X 3.20492e-05
3 *181:B *177:B 0.00010096
*RES
1 *180:X *181:B 19.5464 
*END

*D_NET *30 0.00291435
*CONN
*I *195:A1 I *D sky130_fd_sc_hd__a221o_1
*I *187:A I *D sky130_fd_sc_hd__nor2_1
*I *186:B1 I *D sky130_fd_sc_hd__o21a_1
*I *181:X O *D sky130_fd_sc_hd__xor2_1
*CAP
1 *195:A1 0
2 *187:A 6.34719e-05
3 *186:B1 0
4 *181:X 0.000288568
5 *30:18 0.000277997
6 *30:8 0.000503094
7 *187:A *187:B 6.87574e-05
8 *30:8 *177:A 0.000185394
9 *30:8 *177:B 5.84782e-05
10 *30:8 *195:A2 1.46576e-05
11 *30:8 *37:12 0.000109691
12 *30:8 *38:14 4.14873e-05
13 *30:8 *42:10 0.000358653
14 *30:8 *57:60 0.000140088
15 *30:18 *186:A1 0.000229181
16 *30:18 *187:B 8.76257e-05
17 *30:18 *195:A2 0.00019421
18 *30:18 *195:B1 9.0059e-05
19 *30:18 *34:23 1.6271e-05
20 *30:18 *34:27 0.000186669
*RES
1 *181:X *30:8 17.1393 
2 *30:8 *30:18 15.6964 
3 *30:18 *186:B1 9.3 
4 *30:18 *187:A 10.6571 
5 *30:8 *195:A1 9.3 
*END

*D_NET *31 0.00189369
*CONN
*I *186:A1 I *D sky130_fd_sc_hd__o21a_1
*I *195:A2 I *D sky130_fd_sc_hd__a221o_1
*I *182:X O *D sky130_fd_sc_hd__and4_1
*CAP
1 *186:A1 0.000114452
2 *195:A2 0.000129569
3 *182:X 0.000305983
4 *31:12 0.000550003
5 *195:A2 *34:23 6.56312e-06
6 *195:A2 *37:12 1.46576e-05
7 *195:A2 *57:60 0
8 *31:12 *188:A1 0
9 *31:12 *34:23 0
10 *31:12 *57:60 1.02504e-05
11 *31:12 *57:66 0.000324167
12 *30:8 *195:A2 1.46576e-05
13 *30:18 *186:A1 0.000229181
14 *30:18 *195:A2 0.00019421
*RES
1 *182:X *31:12 24.55 
2 *31:12 *195:A2 21.3045 
3 *31:12 *186:A1 11.8893 
*END

*D_NET *32 0.00404416
*CONN
*I *185:B1 I *D sky130_fd_sc_hd__o211a_1
*I *198:A1 I *D sky130_fd_sc_hd__a211oi_1
*I *188:A1 I *D sky130_fd_sc_hd__a21oi_1
*I *183:Y O *D sky130_fd_sc_hd__nand4_1
*CAP
1 *185:B1 0
2 *198:A1 0
3 *188:A1 0.000741021
4 *183:Y 0.000346883
5 *32:18 0.00101213
6 *32:10 0.000617993
7 *188:A1 *188:B1 0.000139913
8 *188:A1 *199:A 5.58941e-05
9 *188:A1 *34:23 0.000627834
10 *188:A1 *57:66 0
11 *32:10 *182:C 9.68605e-05
12 *32:10 *52:66 0
13 *32:18 *198:A2 0.000267948
14 *198:B1 *32:18 2.41665e-05
15 *198:C1 *32:10 4.73656e-05
16 *24:25 *32:10 1.02504e-05
17 *24:25 *32:18 5.59013e-05
18 *31:12 *188:A1 0
*RES
1 *183:Y *32:10 18.7464 
2 *32:10 *32:18 8.66071 
3 *32:18 *188:A1 31.9786 
4 *32:18 *198:A1 9.3 
5 *32:10 *185:B1 13.8 
*END

*D_NET *33 0.000884447
*CONN
*I *198:A2 I *D sky130_fd_sc_hd__a211oi_1
*I *185:C1 I *D sky130_fd_sc_hd__o211a_1
*I *184:X O *D sky130_fd_sc_hd__a22o_1
*CAP
1 *198:A2 9.03402e-05
2 *185:C1 1.95405e-05
3 *184:X 4.56155e-05
4 *33:8 0.000155496
5 *198:B1 *198:A2 0.000186765
6 *20:8 *198:A2 8.78754e-05
7 *20:8 *33:8 3.08664e-05
8 *32:18 *198:A2 0.000267948
*RES
1 *184:X *33:8 10.2643 
2 *33:8 *185:C1 9.72857 
3 *33:8 *198:A2 12.7107 
*END

*D_NET *34 0.00399188
*CONN
*I *195:B1 I *D sky130_fd_sc_hd__a221o_1
*I *187:B I *D sky130_fd_sc_hd__nor2_1
*I *186:A2 I *D sky130_fd_sc_hd__o21a_1
*I *199:A I *D sky130_fd_sc_hd__nor2_1
*I *185:X O *D sky130_fd_sc_hd__o211a_1
*CAP
1 *195:B1 0.000158121
2 *187:B 0.000203744
3 *186:A2 0
4 *199:A 0.00022885
5 *185:X 3.08599e-05
6 *34:27 0.000286526
7 *34:23 0.000667628
8 *34:8 0.000686436
9 *195:B1 *188:B1 0
10 *195:B1 *191:A 3.34295e-05
11 *195:B1 *194:A 0
12 *195:B1 *37:12 2.89016e-05
13 *199:A *199:B 0.000144773
14 *199:A *211:A 3.18676e-05
15 *34:23 *188:A2 0
16 *34:23 *188:B1 0
17 *187:A *187:B 6.87574e-05
18 *188:A1 *199:A 5.58941e-05
19 *188:A1 *34:23 0.000627834
20 *195:A2 *34:23 6.56312e-06
21 *198:B1 *199:A 5.52302e-05
22 *198:B1 *34:8 0.000139202
23 *198:C1 *199:A 1.74352e-05
24 *198:C1 *34:8 0.000139202
25 *30:18 *187:B 8.76257e-05
26 *30:18 *195:B1 9.0059e-05
27 *30:18 *34:23 1.6271e-05
28 *30:18 *34:27 0.000186669
29 *31:12 *34:23 0
*RES
1 *185:X *34:8 15.1571 
2 *34:8 *199:A 18.3714 
3 *34:8 *34:23 10.1429 
4 *34:23 *34:27 6.26786 
5 *34:27 *186:A2 9.3 
6 *34:27 *187:B 13.0321 
7 *34:23 *195:B1 16.8893 
*END

*D_NET *35 0.00165349
*CONN
*I *194:A I *D sky130_fd_sc_hd__xnor2_1
*I *188:B1 I *D sky130_fd_sc_hd__a21oi_1
*I *186:X O *D sky130_fd_sc_hd__o21a_1
*CAP
1 *194:A 0.000329008
2 *188:B1 0.000276091
3 *186:X 0
4 *35:6 0.0006051
5 *188:B1 *188:A2 5.01213e-05
6 *188:B1 *212:A 5.30637e-06
7 *194:A *191:B 4.1331e-06
8 *194:A *193:B 9.90431e-05
9 *194:A *194:B 0.000144773
10 *188:A1 *188:B1 0.000139913
11 *195:B1 *188:B1 0
12 *195:B1 *194:A 0
13 *34:23 *188:B1 0
*RES
1 *186:X *35:6 13.8 
2 *35:6 *188:B1 18.8357 
3 *35:6 *194:A 19.9786 
*END

*D_NET *36 0.000223146
*CONN
*I *188:A2 I *D sky130_fd_sc_hd__a21oi_1
*I *187:Y O *D sky130_fd_sc_hd__nor2_1
*CAP
1 *188:A2 8.65123e-05
2 *187:Y 8.65123e-05
3 *188:B1 *188:A2 5.01213e-05
4 *34:23 *188:A2 0
*RES
1 *187:Y *188:A2 29.2429 
*END

*D_NET *37 0.00127647
*CONN
*I *192:A I *D sky130_fd_sc_hd__and2_1
*I *191:A I *D sky130_fd_sc_hd__nor2_1
*I *195:B2 I *D sky130_fd_sc_hd__a221o_1
*I *189:X O *D sky130_fd_sc_hd__and2_1
*CAP
1 *192:A 2.01908e-05
2 *191:A 0.00013783
3 *195:B2 5.30142e-06
4 *189:X 0.000190738
5 *37:14 0.000163117
6 *37:12 0.000230914
7 *191:A *191:B 0
8 *192:A *195:C1 3.18676e-05
9 *192:A *38:14 4.88637e-05
10 *37:12 *38:14 0.000184009
11 *37:12 *57:60 6.65302e-05
12 *37:14 *195:C1 1.04232e-05
13 *37:14 *38:14 0
14 *195:A2 *37:12 1.46576e-05
15 *195:B1 *191:A 3.34295e-05
16 *195:B1 *37:12 2.89016e-05
17 *30:8 *37:12 0.000109691
*RES
1 *189:X *37:12 23.3536 
2 *37:12 *37:14 0.428571 
3 *37:14 *195:B2 9.42946 
4 *37:14 *191:A 20.55 
5 *37:12 *192:A 10.2464 
*END

*D_NET *38 0.00342201
*CONN
*I *192:B I *D sky130_fd_sc_hd__and2_1
*I *191:B I *D sky130_fd_sc_hd__nor2_1
*I *190:X O *D sky130_fd_sc_hd__a32o_1
*CAP
1 *192:B 0
2 *191:B 0.000175912
3 *190:X 0.00109731
4 *38:14 0.00127322
5 *191:B *193:A 5.33334e-05
6 *38:14 *177:A 6.72997e-05
7 *38:14 *177:B 0.00040279
8 *38:14 *195:C1 3.05066e-05
9 *38:14 *57:60 4.31541e-05
10 *180:A2 *38:14 0
11 *181:A *38:14 0
12 *191:A *191:B 0
13 *192:A *38:14 4.88637e-05
14 *194:A *191:B 4.1331e-06
15 *30:8 *38:14 4.14873e-05
16 *37:12 *38:14 0.000184009
17 *37:14 *38:14 0
*RES
1 *190:X *38:14 33.6393 
2 *38:14 *191:B 21.4964 
3 *38:14 *192:B 9.3 
*END

*D_NET *39 0.000938388
*CONN
*I *193:A I *D sky130_fd_sc_hd__or2_1
*I *191:Y O *D sky130_fd_sc_hd__nor2_1
*CAP
1 *193:A 0.000442527
2 *191:Y 0.000442527
3 *191:B *193:A 5.33334e-05
*RES
1 *191:Y *193:A 33.1714 
*END

*D_NET *40 0.000592315
*CONN
*I *193:B I *D sky130_fd_sc_hd__or2_1
*I *195:C1 I *D sky130_fd_sc_hd__a221o_1
*I *192:X O *D sky130_fd_sc_hd__and2_1
*CAP
1 *193:B 6.92948e-05
2 *195:C1 0.000140943
3 *192:X 0
4 *40:4 0.000210237
5 *192:A *195:C1 3.18676e-05
6 *194:A *193:B 9.90431e-05
7 *37:14 *195:C1 1.04232e-05
8 *38:14 *195:C1 3.05066e-05
*RES
1 *192:X *40:4 9.3 
2 *40:4 *195:C1 11.9071 
3 *40:4 *193:B 10.6571 
*END

*D_NET *41 0.00024627
*CONN
*I *194:B I *D sky130_fd_sc_hd__xnor2_1
*I *193:X O *D sky130_fd_sc_hd__or2_1
*CAP
1 *194:B 5.07484e-05
2 *193:X 5.07484e-05
3 *194:A *194:B 0.000144773
*RES
1 *193:X *194:B 19.9571 
*END

*D_NET *42 0.00208729
*CONN
*I *197:B I *D sky130_fd_sc_hd__xnor2_1
*I *196:C I *D sky130_fd_sc_hd__and3_1
*I *195:X O *D sky130_fd_sc_hd__a221o_1
*CAP
1 *197:B 4.6233e-05
2 *196:C 0.000265715
3 *195:X 0.000274535
4 *42:10 0.000586482
5 *196:C *57:34 0.00010858
6 *196:C *57:47 0.000300979
7 *197:B *57:47 3.12359e-05
8 *42:10 *57:47 7.54868e-05
9 *197:A *197:B 1.37292e-05
10 *197:A *42:10 2.56601e-05
11 *30:8 *42:10 0.000358653
*RES
1 *195:X *42:10 18.2464 
2 *42:10 *196:C 17.6929 
3 *42:10 *197:B 14.8357 
*END

*D_NET *43 0.000236687
*CONN
*I *199:B I *D sky130_fd_sc_hd__nor2_1
*I *198:Y O *D sky130_fd_sc_hd__a211oi_1
*CAP
1 *199:B 4.59573e-05
2 *198:Y 4.59573e-05
3 *199:A *199:B 0.000144773
*RES
1 *198:Y *199:B 19.9571 
*END

*D_NET *44 0.00492963
*CONN
*I *182:B I *D sky130_fd_sc_hd__and4_1
*I *183:B I *D sky130_fd_sc_hd__nand4_1
*I *184:B2 I *D sky130_fd_sc_hd__a22o_1
*I *170:D I *D sky130_fd_sc_hd__and4_1
*I *200:A I *D sky130_fd_sc_hd__clkbuf_1
*I *172:B2 I *D sky130_fd_sc_hd__a22o_1
*I *171:D I *D sky130_fd_sc_hd__nand4_1
*I *201:X O *D sky130_fd_sc_hd__dlymetal6s2s_1
*CAP
1 *182:B 0.000170568
2 *183:B 0
3 *184:B2 0
4 *170:D 0
5 *200:A 9.46294e-05
6 *172:B2 0
7 *171:D 0
8 *201:X 0.000248582
9 *44:69 0.00027467
10 *44:58 0.000184806
11 *44:51 0.000142094
12 *44:36 0.000319732
13 *44:23 0.000289397
14 *44:10 0.000374267
15 *182:B *182:A 3.92757e-05
16 *182:B *57:72 0.000131419
17 *200:A *52:12 9.24299e-05
18 *200:A *55:38 0
19 *44:10 *171:A 3.51442e-05
20 *44:10 *52:12 0
21 *44:23 *171:A 3.061e-05
22 *44:23 *171:B 0.000127446
23 *44:23 *171:C 0.000126446
24 *44:23 *56:16 3.34366e-05
25 *44:36 *170:C 0.000309273
26 *44:36 *171:B 1.02504e-05
27 *44:36 *51:14 4.56437e-05
28 *44:36 *56:14 3.34366e-05
29 *44:36 *56:16 2.31791e-05
30 *44:51 *170:C 0.000164232
31 *44:58 *184:B1 5.52302e-05
32 *44:69 *182:A 2.49484e-05
33 *44:69 *184:A1 0.00016956
34 *44:69 *184:B1 8.05581e-05
35 *44:69 *52:66 0.000150625
36 *44:69 *57:72 2.49484e-05
37 *173:A2 *44:58 0.000119219
38 *174:B *200:A 3.17148e-05
39 *174:B *44:36 5.33005e-05
40 *174:B *44:51 0.000183726
41 *174:B *44:58 2.95641e-05
42 *20:8 *44:58 0.000404707
43 *20:8 *44:69 5.52238e-05
44 *22:14 *44:51 1.21289e-05
45 *22:14 *44:58 0.000217779
46 *24:14 *44:58 1.5424e-05
*RES
1 *201:X *44:10 18.1214 
2 *44:10 *171:D 13.8 
3 *44:10 *44:23 3.32143 
4 *44:23 *172:B2 13.8 
5 *44:23 *44:36 8.23214 
6 *44:36 *200:A 20.55 
7 *44:36 *44:51 2.5 
8 *44:51 *170:D 9.3 
9 *44:51 *44:58 4.64286 
10 *44:58 *184:B2 9.3 
11 *44:58 *44:69 8.5 
12 *44:69 *183:B 13.8 
13 *44:69 *182:B 16.6036 
*END

*D_NET *45 0.000424008
*CONN
*I *210:A I *D sky130_fd_sc_hd__buf_2
*I *175:Y O *D sky130_fd_sc_hd__nor2_1
*CAP
1 *210:A 0.000195574
2 *175:Y 0.000195574
3 *24:14 *210:A 4.50349e-06
4 *24:25 *210:A 2.83569e-05
*RES
1 *175:Y *210:A 30.4929 
*END

*D_NET *46 0.00119482
*CONN
*I *211:A I *D sky130_fd_sc_hd__buf_2
*I *199:Y O *D sky130_fd_sc_hd__nor2_1
*CAP
1 *211:A 0.000581476
2 *199:Y 0.000581476
3 *199:A *211:A 3.18676e-05
*RES
1 *199:Y *211:A 28.6 
*END

*D_NET *47 0.00124634
*CONN
*I *212:A I *D sky130_fd_sc_hd__buf_2
*I *188:Y O *D sky130_fd_sc_hd__a21oi_1
*CAP
1 *212:A 0.000614421
2 *188:Y 0.000614421
3 P[4] *212:A 1.21955e-05
4 *188:B1 *212:A 5.30637e-06
*RES
1 *188:Y *212:A 37.5643 
*END

*D_NET *48 0.000482402
*CONN
*I *213:A I *D sky130_fd_sc_hd__buf_2
*I *194:Y O *D sky130_fd_sc_hd__xnor2_1
*CAP
1 *213:A 0.000241201
2 *194:Y 0.000241201
*RES
1 *194:Y *213:A 22.7429 
*END

*D_NET *49 0.00033301
*CONN
*I *214:A I *D sky130_fd_sc_hd__buf_2
*I *197:Y O *D sky130_fd_sc_hd__xnor2_1
*CAP
1 *214:A 0.000158901
2 *197:Y 0.000158901
3 *214:A *215:A 0
4 *214:A *57:47 1.15172e-05
5 *197:A *214:A 3.69047e-06
*RES
1 *197:Y *214:A 30.0821 
*END

*D_NET *50 0.000342445
*CONN
*I *215:A I *D sky130_fd_sc_hd__buf_2
*I *196:X O *D sky130_fd_sc_hd__and3_1
*CAP
1 *215:A 0.000171223
2 *196:X 0.000171223
3 *214:A *215:A 0
*RES
1 *196:X *215:A 30.3857 
*END

*D_NET *51 0.00357035
*CONN
*I *179:A1 I *D sky130_fd_sc_hd__a22o_1
*I *178:B I *D sky130_fd_sc_hd__and3_1
*I *170:B I *D sky130_fd_sc_hd__and4_1
*I *172:A2 I *D sky130_fd_sc_hd__a22o_1
*I *171:B I *D sky130_fd_sc_hd__nand4_1
*I *202:X O *D sky130_fd_sc_hd__clkbuf_1
*CAP
1 *179:A1 0
2 *178:B 0.000167934
3 *170:B 4.15142e-05
4 *172:A2 0
5 *171:B 0.000150528
6 *202:X 9.08695e-05
7 *51:29 7.81788e-05
8 *51:14 0.000403892
9 *51:12 0.000490864
10 *51:8 0.0001971
11 *170:B *170:A 0.000128496
12 *170:B *170:C 0.000227532
13 *171:B *171:A 6.66822e-05
14 *171:B *171:C 9.90367e-05
15 *171:B *55:38 1.08359e-05
16 *178:B *178:A 4.0552e-05
17 *178:B *178:C 1.03968e-05
18 *51:8 *179:B2 5.52238e-05
19 *51:8 *190:B2 2.89016e-05
20 *51:8 *56:53 0.000137983
21 *51:12 *178:C 0.000100823
22 *51:12 *179:B2 6.19181e-05
23 *51:12 *52:12 0
24 *51:12 *55:10 5.41054e-05
25 *51:14 *52:12 0
26 *51:14 *55:10 5.33978e-05
27 *51:14 *55:36 0.000103993
28 *51:14 *55:38 0.000128214
29 *51:14 *56:14 0.000161766
30 *51:29 *170:A 5.52302e-05
31 *51:29 *170:C 0.000139913
32 *51:29 *172:B1 5.52302e-05
33 *22:14 *170:B 4.58976e-05
34 *44:23 *171:B 0.000127446
35 *44:36 *171:B 1.02504e-05
36 *44:36 *51:14 4.56437e-05
*RES
1 *202:X *51:8 11.4964 
2 *51:8 *51:12 7.35714 
3 *51:12 *51:14 6.80357 
4 *51:14 *171:B 16.8 
5 *51:14 *51:29 5.85714 
6 *51:29 *172:A2 9.3 
7 *51:29 *170:B 11.4786 
8 *51:12 *178:B 15.9786 
9 *51:8 *179:A1 9.3 
*END

*D_NET *52 0.00714678
*CONN
*I *169:B I *D sky130_fd_sc_hd__and2_1
*I *183:C I *D sky130_fd_sc_hd__nand4_1
*I *182:C I *D sky130_fd_sc_hd__and4_1
*I *184:A2 I *D sky130_fd_sc_hd__a22o_1
*I *189:A I *D sky130_fd_sc_hd__and2_1
*I *176:B I *D sky130_fd_sc_hd__nand2_1
*I *190:A2 I *D sky130_fd_sc_hd__a32o_1
*I *203:X O *D sky130_fd_sc_hd__clkbuf_2
*CAP
1 *169:B 3.82418e-05
2 *183:C 0
3 *182:C 0.000244158
4 *184:A2 0
5 *189:A 0.000315418
6 *176:B 0
7 *190:A2 0
8 *203:X 0.000237172
9 *52:66 0.000495584
10 *52:47 0.000709068
11 *52:39 0.000694609
12 *52:25 0.000445486
13 *52:12 0.000863685
14 *52:6 0.00116951
15 *182:C *182:A 3.66572e-05
16 *182:C *184:A1 8.18233e-06
17 *182:C *55:71 0.000100919
18 *182:C *55:80 8.88341e-07
19 *52:6 *171:A 0.000144773
20 *52:6 *171:C 6.4443e-05
21 *52:12 *171:A 0
22 *52:12 *55:36 0
23 *52:12 *55:38 0
24 *52:25 *176:A 0.000159449
25 *52:25 *190:A1 3.99614e-06
26 *52:47 *169:A 0
27 *52:47 *184:A1 1.00332e-05
28 *52:66 *184:A1 6.90679e-05
29 *52:66 *184:B1 0.000154762
30 *52:66 *57:72 1.02504e-05
31 *173:A1 *52:6 7.03295e-05
32 *173:A1 *52:39 0.00018233
33 *173:A1 *52:47 2.24763e-05
34 *173:A2 *52:47 3.4879e-05
35 *173:B1 *52:47 7.51813e-06
36 *174:A *52:12 0
37 *174:B *52:12 5.02919e-05
38 *175:A *169:B 0
39 *175:A *52:47 2.81111e-05
40 *181:A *189:A 1.74352e-05
41 *181:A *52:25 3.18676e-05
42 *190:A3 *52:25 6.46481e-05
43 *200:A *52:12 9.24299e-05
44 *20:8 *52:66 9.23451e-05
45 *24:14 *52:47 0.00012573
46 *27:12 *52:12 0.000102545
47 *32:10 *182:C 9.68605e-05
48 *32:10 *52:66 0
49 *44:10 *52:12 0
50 *44:69 *52:66 0.000150625
51 *51:12 *52:12 0
52 *51:14 *52:12 0
*RES
1 *203:X *52:6 13.9429 
2 *52:6 *52:12 21.2679 
3 *52:12 *190:A2 9.3 
4 *52:12 *52:25 3.875 
5 *52:25 *176:B 9.3 
6 *52:25 *189:A 14.7643 
7 *52:6 *52:39 4.23214 
8 *52:39 *52:47 11.0893 
9 *52:47 *184:A2 13.8 
10 *52:47 *52:66 18.25 
11 *52:66 *182:C 23.2643 
12 *52:66 *183:C 9.3 
13 *52:39 *169:B 10.0321 
*END

*D_NET *53 0.004418
*CONN
*I *196:B I *D sky130_fd_sc_hd__and3_1
*I *177:B I *D sky130_fd_sc_hd__nand2_1
*I *180:A1 I *D sky130_fd_sc_hd__a21bo_1
*I *190:B2 I *D sky130_fd_sc_hd__a32o_1
*I *179:B1 I *D sky130_fd_sc_hd__a22o_1
*I *204:X O *D sky130_fd_sc_hd__buf_1
*CAP
1 *196:B 0.000462315
2 *177:B 0.000177163
3 *180:A1 2.23854e-05
4 *190:B2 0.00011832
5 *179:B1 0
6 *204:X 0.000155255
7 *53:42 0.000429759
8 *53:20 0.000243645
9 *53:16 0.000505003
10 *53:12 0.000767037
11 *190:B2 *56:53 7.87189e-05
12 *196:B *57:34 0.000232034
13 *53:16 *57:34 0.000109809
14 *53:20 *178:C 5.80706e-06
15 *53:20 *179:B2 9.25014e-06
16 *53:20 *57:10 7.252e-05
17 *53:20 *57:34 1.08359e-05
18 *53:42 *57:8 9.71197e-05
19 *180:A2 *177:B 3.18676e-05
20 *180:A2 *53:42 7.77751e-05
21 *180:B1_N *53:42 9.90431e-05
22 *181:B *177:B 0.00010096
23 *190:A3 *190:B2 6.75704e-05
24 *204:A *53:12 5.36379e-05
25 *30:8 *177:B 5.84782e-05
26 *38:14 *177:B 0.00040279
27 *51:8 *190:B2 2.89016e-05
*RES
1 *204:X *53:12 20.9964 
2 *53:12 *53:16 7.96429 
3 *53:16 *53:20 6.75 
4 *53:20 *179:B1 9.3 
5 *53:20 *190:B2 12.4607 
6 *53:16 *53:42 8.73214 
7 *53:42 *180:A1 9.72857 
8 *53:42 *177:B 14.675 
9 *53:12 *196:B 16.9607 
*END

*D_NET *54 0.000431311
*CONN
*I *169:A I *D sky130_fd_sc_hd__and2_1
*I *205:X O *D sky130_fd_sc_hd__clkbuf_1
*CAP
1 *169:A 0.00020601
2 *205:X 0.00020601
3 *205:A *169:A 1.92905e-05
4 *52:47 *169:A 0
*RES
1 *205:X *169:A 30.1893 
*END

*D_NET *55 0.00558615
*CONN
*I *182:A I *D sky130_fd_sc_hd__and4_1
*I *184:A1 I *D sky130_fd_sc_hd__a22o_1
*I *183:A I *D sky130_fd_sc_hd__nand4_1
*I *170:A I *D sky130_fd_sc_hd__and4_1
*I *172:A1 I *D sky130_fd_sc_hd__a22o_1
*I *171:A I *D sky130_fd_sc_hd__nand4_1
*I *179:B2 I *D sky130_fd_sc_hd__a22o_1
*I *178:A I *D sky130_fd_sc_hd__and3_1
*I *206:X O *D sky130_fd_sc_hd__clkbuf_2
*CAP
1 *182:A 9.13643e-05
2 *184:A1 0.000172848
3 *183:A 0
4 *170:A 7.33985e-05
5 *172:A1 0
6 *171:A 0.000131266
7 *179:B2 0.000105315
8 *178:A 0.000105442
9 *206:X 4.22731e-05
10 *55:80 0.000269838
11 *55:71 0.000625202
12 *55:51 7.33985e-05
13 *55:38 0.000280713
14 *55:36 0.00100036
15 *55:10 0.000269176
16 *55:6 0.000332025
17 *171:A *171:C 6.05161e-06
18 *178:A *178:C 0.00010096
19 *179:B2 *178:C 4.038e-06
20 *179:B2 *56:14 2.31791e-05
21 *179:B2 *56:53 7.6644e-05
22 *182:A *57:72 0
23 *55:10 *56:14 0.000202842
24 *55:71 *216:A 2.72967e-05
25 *170:B *170:A 0.000128496
26 *171:B *171:A 6.66822e-05
27 *171:B *55:38 1.08359e-05
28 *173:A1 *171:A 1.33343e-05
29 *174:B *171:A 3.34672e-05
30 *174:B *55:38 3.2534e-05
31 *178:B *178:A 4.0552e-05
32 *182:B *182:A 3.92757e-05
33 *182:C *182:A 3.66572e-05
34 *182:C *184:A1 8.18233e-06
35 *182:C *55:71 0.000100919
36 *182:C *55:80 8.88341e-07
37 *200:A *55:38 0
38 *202:A *179:B2 0
39 *22:14 *170:A 5.52302e-05
40 *44:10 *171:A 3.51442e-05
41 *44:23 *171:A 3.061e-05
42 *44:69 *182:A 2.49484e-05
43 *44:69 *184:A1 0.00016956
44 *51:8 *179:B2 5.52238e-05
45 *51:12 *179:B2 6.19181e-05
46 *51:12 *55:10 5.41054e-05
47 *51:14 *55:10 5.33978e-05
48 *51:14 *55:36 0.000103993
49 *51:14 *55:38 0.000128214
50 *51:29 *170:A 5.52302e-05
51 *52:6 *171:A 0.000144773
52 *52:12 *171:A 0
53 *52:12 *55:36 0
54 *52:12 *55:38 0
55 *52:47 *184:A1 1.00332e-05
56 *52:66 *184:A1 6.90679e-05
57 *53:20 *179:B2 9.25014e-06
*RES