*SPEF "ieee 1481-1999"
*DESIGN "e9_SARSA_nSteps_INDEPENDIENTES"
*DATE "10:11:35 Friday September 12, 2025"
*VENDOR "The OpenROAD Project"
*PROGRAM "OpenROAD"
*VERSION "edf00dff99f6c40d67a30c0e22a8191c5d2ed9d6"
*DESIGN_FLOW "NAME_SCOPE LOCAL" "PIN_CAP NONE"
*DIVIDER /
*DELIMITER :
*BUS_DELIMITER []
*T_UNIT 1 NS
*C_UNIT 1 PF
*R_UNIT 1 OHM
*L_UNIT 1 HENRY

*NAME_MAP
*1 A[0]
*2 A[1]
*3 B[0]
*4 B[1]
*5 P[0]
*6 P[1]
*7 P[2]
*8 P[3]
*11 _0_
*12 _1_
*13 net1
*14 net2
*15 net3
*16 net4
*17 net5
*18 net6
*19 net7
*20 net8
*21 FILLER_0_15
*22 FILLER_0_27
*23 FILLER_0_29
*24 FILLER_0_3
*25 FILLER_0_41
*26 FILLER_0_53
*27 FILLER_0_57
*28 FILLER_0_69
*29 FILLER_1_15
*30 FILLER_1_27
*31 FILLER_1_3
*32 FILLER_1_39
*33 FILLER_1_51
*34 FILLER_1_55
*35 FILLER_1_57
*36 FILLER_1_69
*37 FILLER_2_18
*38 FILLER_2_26
*39 FILLER_2_29
*40 FILLER_2_41
*41 FILLER_2_53
*42 FILLER_2_6
*43 FILLER_2_65
*44 FILLER_2_77
*45 FILLER_3_11
*46 FILLER_3_16
*47 FILLER_3_28
*48 FILLER_3_3
*49 FILLER_3_40
*50 FILLER_3_52
*51 FILLER_3_57
*52 FILLER_3_69
*53 FILLER_4_21
*54 FILLER_4_27
*55 FILLER_4_29
*56 FILLER_4_41
*57 FILLER_4_53
*58 FILLER_4_65
*59 FILLER_5_17
*60 FILLER_5_25
*61 FILLER_5_35
*62 FILLER_5_47
*63 FILLER_5_55
*64 FILLER_5_57
*65 FILLER_5_6
*66 FILLER_5_69
*67 FILLER_6_19
*68 FILLER_6_27
*69 FILLER_6_29
*70 FILLER_6_41
*71 FILLER_6_53
*72 FILLER_6_65
*73 FILLER_6_7
*74 FILLER_7_18
*75 FILLER_7_30
*76 FILLER_7_42
*77 FILLER_7_54
*78 FILLER_7_57
*79 FILLER_7_6
*80 FILLER_7_69
*81 FILLER_8_15
*82 FILLER_8_27
*83 FILLER_8_29
*84 FILLER_8_3
*85 FILLER_8_41
*86 FILLER_8_53
*87 FILLER_8_65
*88 FILLER_8_77
*89 FILLER_9_15
*90 FILLER_9_27
*91 FILLER_9_29
*92 FILLER_9_3
*93 FILLER_9_41
*94 FILLER_9_53
*95 FILLER_9_57
*96 FILLER_9_69
*97 PHY_EDGE_ROW_0_Left_10
*98 PHY_EDGE_ROW_0_Right_0
*99 PHY_EDGE_ROW_1_Left_11
*100 PHY_EDGE_ROW_1_Right_1
*101 PHY_EDGE_ROW_2_Left_12
*102 PHY_EDGE_ROW_2_Right_2
*103 PHY_EDGE_ROW_3_Left_13
*104 PHY_EDGE_ROW_3_Right_3
*105 PHY_EDGE_ROW_4_Left_14
*106 PHY_EDGE_ROW_4_Right_4
*107 PHY_EDGE_ROW_5_Left_15
*108 PHY_EDGE_ROW_5_Right_5
*109 PHY_EDGE_ROW_6_Left_16
*110 PHY_EDGE_ROW_6_Right_6
*111 PHY_EDGE_ROW_7_Left_17
*112 PHY_EDGE_ROW_7_Right_7
*113 PHY_EDGE_ROW_8_Left_18
*114 PHY_EDGE_ROW_8_Right_8
*115 PHY_EDGE_ROW_9_Left_19
*116 PHY_EDGE_ROW_9_Right_9
*117 TAP_TAPCELL_ROW_0_20
*118 TAP_TAPCELL_ROW_0_21
*119 TAP_TAPCELL_ROW_1_22
*120 TAP_TAPCELL_ROW_2_23
*121 TAP_TAPCELL_ROW_3_24
*122 TAP_TAPCELL_ROW_4_25
*123 TAP_TAPCELL_ROW_5_26
*124 TAP_TAPCELL_ROW_6_27
*125 TAP_TAPCELL_ROW_7_28
*126 TAP_TAPCELL_ROW_8_29
*127 TAP_TAPCELL_ROW_9_30
*128 TAP_TAPCELL_ROW_9_31
*129 _2_
*130 _3_
*131 _4_
*132 _5_
*133 _6_
*134 _7_
*135 input1
*136 input2
*137 input3
*138 input4
*139 output5
*140 output6
*141 output7
*142 output8

*PORTS
A[0] I
A[1] I
B[0] I
B[1] I
P[0] O
P[1] O
P[2] O
P[3] O

*D_NET *1 0.000666589
*CONN
*P A[0] I
*I *135:A I *D sky130_fd_sc_hd__buf_1
*CAP
1 A[0] 0.000320228
2 *135:A 0
3 *1:17 0.000320228
4 *1:17 *2:17 2.61329e-05
*RES
1 A[0] *1:17 27.1584 
2 *1:17 *135:A 23 
*END

*D_NET *2 0.000747356
*CONN
*P A[1] I
*I *136:A I *D sky130_fd_sc_hd__clkbuf_1
*CAP
1 A[1] 0.000346167
2 *136:A 0
3 *2:17 0.000346167
4 *2:17 *3:17 2.88889e-05
5 *1:17 *2:17 2.61329e-05
*RES
1 A[1] *2:17 28.2148 
2 *2:17 *136:A 23 
*END

*D_NET *3 0.00071699
*CONN
*P B[0] I
*I *137:A I *D sky130_fd_sc_hd__clkbuf_1
*CAP
1 B[0] 0.000330094
2 *137:A 0
3 *3:17 0.000330094
4 *3:17 P[3] 2.79122e-05
5 *3:17 *20:8 0
6 *2:17 *3:17 2.88889e-05
*RES
1 B[0] *3:17 27.8627 
2 *3:17 *137:A 23 
*END

*D_NET *4 0.000616196
*CONN
*P B[1] I
*I *138:A I *D sky130_fd_sc_hd__buf_1
*CAP
1 B[1] 0.000297475
2 *138:A 0.000297475
3 *138:A P[3] 2.12457e-05
*RES
1 B[1] *138:A 49.8062 
*END

*D_NET *5 0.000520154
*CONN
*P P[0] O
*I *139:X O *D sky130_fd_sc_hd__buf_2
*CAP
1 P[0] 0.000210018
2 *139:X 0.000210018
3 P[0] P[2] 8.73764e-05
4 P[0] *17:12 1.27424e-05
*RES
1 *139:X P[0] 47.1648 
*END

*D_NET *6 0.000673721
*CONN
*P P[1] O
*I *140:X O *D sky130_fd_sc_hd__buf_2
*CAP
1 P[1] 0.000293173
2 *140:X 0.000293173
3 P[1] P[2] 8.73764e-05
*RES
1 *140:X P[1] 48.5734 
*END

*D_NET *7 0.000615305
*CONN
*P P[2] O
*I *141:X O *D sky130_fd_sc_hd__buf_2
*CAP
1 P[2] 0.000220276
2 *141:X 0.000220276
3 P[0] P[2] 8.73764e-05
4 P[1] P[2] 8.73764e-05
*RES
1 *141:X P[2] 47.8691 
*END

*D_NET *8 0.000557539
*CONN
*P P[3] O
*I *142:X O *D sky130_fd_sc_hd__buf_2
*CAP
1 P[3] 0.000249258
2 *142:X 0.000249258
3 P[3] *142:A 9.86551e-06
4 *138:A P[3] 2.12457e-05
5 *3:17 P[3] 2.79122e-05
*RES
1 *142:X P[3] 47.1648 
*END

*D_NET *11 0.00043174
*CONN
*I *134:A2 I *D sky130_fd_sc_hd__o211a_1
*I *130:Y O *D sky130_fd_sc_hd__inv_2
*CAP
1 *134:A2 0
2 *130:Y 0.000210147
3 *11:10 0.000210147
4 *11:10 *131:D 0
5 *11:10 *12:12 1.14452e-05
*RES
1 *130:Y *11:10 41.0036 
2 *11:10 *134:A2 38 
*END

*D_NET *12 0.00154603
*CONN
*I *132:A I *D sky130_fd_sc_hd__nor2_1
*I *133:A I *D sky130_fd_sc_hd__or2_1
*I *134:A1 I *D sky130_fd_sc_hd__o211a_1
*I *129:Y O *D sky130_fd_sc_hd__inv_2
*CAP
1 *132:A 4.50255e-05
2 *133:A 0
3 *134:A1 0
4 *129:Y 7.54934e-05
5 *12:23 0.00032225
6 *12:12 0.000118669
7 *12:6 0.000471387
8 *132:A *132:B 0.00014428
9 *12:6 *20:12 2.47702e-05
10 *12:12 *131:A 3.5664e-05
11 *12:12 *15:10 0
12 *12:23 *132:B 4.19743e-05
13 *12:23 *20:12 0.000255074
14 *11:10 *12:12 1.14452e-05
*RES
1 *129:Y *12:6 24.0979 
2 *12:6 *12:12 32.2579 
3 *12:12 *134:A1 23 
4 *12:6 *12:23 7.20857 
5 *12:23 *133:A 23 
6 *12:23 *132:A 24.5743 
*END

*D_NET *13 0.00102373
*CONN
*I *131:D I *D sky130_fd_sc_hd__and4_1
*I *130:A I *D sky130_fd_sc_hd__inv_2
*I *135:X O *D sky130_fd_sc_hd__buf_1
*CAP
1 *131:D 0.000112661
2 *130:A 0.000145008
3 *135:X 0.000254198
4 *13:10 0.000511867
5 *11:10 *131:D 0
*RES
1 *135:X *13:10 41.8321 
2 *13:10 *130:A 40.5271 
3 *13:10 *131:D 39.9057 
*END

*D_NET *14 0.000773099
*CONN
*I *134:B1 I *D sky130_fd_sc_hd__o211a_1
*I *131:C I *D sky130_fd_sc_hd__and4_1
*I *136:X O *D sky130_fd_sc_hd__clkbuf_1
*CAP
1 *134:B1 0.000156985
2 *131:C 0
3 *136:X 0.000148909
4 *14:8 0.000305894
5 *134:B1 *131:A 1.76557e-05
6 *134:B1 *134:C1 0.000143655
*RES
1 *136:X *14:8 25.5479 
2 *14:8 *131:C 23 
3 *14:8 *134:B1 26.5007 
*END

*D_NET *15 0.000952474
*CONN
*I *134:C1 I *D sky130_fd_sc_hd__o211a_1
*I *131:B I *D sky130_fd_sc_hd__and4_1
*I *137:X O *D sky130_fd_sc_hd__clkbuf_1
*CAP
1 *134:C1 4.23762e-05
2 *131:B 0
3 *137:X 0.000320681
4 *15:12 4.23762e-05
5 *15:10 0.000320681
6 *134:C1 *131:A 3.22879e-05
7 *15:10 *131:A 0
8 *15:10 *20:8 0
9 *15:10 *20:12 5.04167e-05
10 *134:B1 *134:C1 0.000143655
11 *12:12 *15:10 0
*RES
1 *137:X *15:10 42.785 
2 *15:10 *15:12 15 
3 *15:12 *131:B 23 
4 *15:12 *134:C1 24.5743 
*END

*D_NET *16 0.0016545
*CONN
*I *129:A I *D sky130_fd_sc_hd__inv_2
*I *131:A I *D sky130_fd_sc_hd__and4_1
*I *138:X O *D sky130_fd_sc_hd__buf_1
*CAP
1 *129:A 0
2 *131:A 0.000178688
3 *138:X 0.000605757
4 *16:10 0.000784445
5 *131:A *20:8 0
6 *16:10 *142:A 0
7 *16:10 *20:8 0
8 *134:B1 *131:A 1.76557e-05
9 *134:C1 *131:A 3.22879e-05
10 *12:12 *131:A 3.5664e-05
11 *15:10 *131:A 0
*RES
1 *138:X *16:10 47.1557 
2 *16:10 *131:A 41.7079 
3 *16:10 *129:A 38 
*END

*D_NET *17 0.00392032
*CONN
*I *139:A I *D sky130_fd_sc_hd__buf_2
*I *133:X O *D sky130_fd_sc_hd__or2_1
*CAP
1 *139:A 0
2 *133:X 0.00135029
3 *17:12 0.000106431
4 *17:6 0.00145672
5 *17:6 *132:B 0.000146197
6 *17:6 *19:10 0.000847944
7 P[0] *17:12 1.27424e-05
*RES
1 *133:X *17:6 45.0607 
2 *17:6 *17:12 31.9057 
3 *17:12 *139:A 23 
*END

*D_NET *18 0.00299236
*CONN
*I *140:A I *D sky130_fd_sc_hd__buf_2
*I *134:X O *D sky130_fd_sc_hd__o211a_1
*CAP
1 *140:A 0.000376788
2 *134:X 0.00111939
3 *18:8 0.00149618
*RES
1 *134:X *18:8 43.8904 
2 *18:8 *140:A 30.0532 
*END

*D_NET *19 0.00255815
*CONN
*I *141:A I *D sky130_fd_sc_hd__buf_2
*I *132:Y O *D sky130_fd_sc_hd__nor2_1
*CAP
1 *141:A 0
2 *132:Y 0.000839003
3 *19:10 0.000839003
4 *19:10 *132:B 3.22051e-05
5 *17:6 *19:10 0.000847944
*RES
1 *132:Y *19:10 44.75 
2 *19:10 *141:A 23 
*END

*D_NET *20 0.00253856
*CONN
*I *142:A I *D sky130_fd_sc_hd__buf_2
*I *132:B I *D sky130_fd_sc_hd__nor2_1
*I *133:B I *D sky130_fd_sc_hd__or2_1
*I *131:X O *D sky130_fd_sc_hd__and4_1
*CAP
1 *142:A 0.000125228
2 *132:B 0.000129454
3 *133:B 0
4 *131:X 0.000152668
5 *20:12 0.000638993
6 *20:8 0.000787435
7 P[3] *142:A 9.86551e-06
8 *131:A *20:8 0
9 *132:A *132:B 0.00014428
10 *3:17 *20:8 0
11 *12:6 *20:12 2.47702e-05
12 *12:23 *132:B 4.19743e-05
13 *12:23 *20:12 0.000255074
14 *15:10 *20:8 0
15 *15:10 *20:12 5.04167e-05
16 *16:10 *142:A 0
17 *16:10 *20:8 0
18 *17:6 *132:B 0.000146197
19 *19:10 *132:B 3.22051e-05
*RES
1 *131:X *20:8 40.61 
2 *20:8 *20:12 25.15 
3 *20:12 *133:B 23 
4 *20:12 *132:B 26.9771 
5 *20:8 *142:A 40.2579 
*END
