*SPEF "ieee 1481-1999"
*DESIGN "SarsaNada_e6"
*DATE "14:09:42 Tuesday September 16, 2025"
*VENDOR "The OpenROAD Project"
*PROGRAM "OpenROAD"
*VERSION "edf00dff99f6c40d67a30c0e22a8191c5d2ed9d6"
*DESIGN_FLOW "NAME_SCOPE LOCAL" "PIN_CAP NONE"
*DIVIDER /
*DELIMITER :
*BUS_DELIMITER []
*T_UNIT 1 NS
*C_UNIT 1 PF
*R_UNIT 1 OHM
*L_UNIT 1 HENRY

*NAME_MAP
*1 A[0]
*2 A[1]
*3 B[0]
*4 B[1]
*5 P[0]
*6 P[1]
*7 P[2]
*8 P[3]
*11 _0_
*12 _1_
*13 net1
*14 net2
*15 net3
*16 net4
*17 net5
*18 net6
*19 net7
*20 net8
*21 pp1
*22 FILLER_0_15
*23 FILLER_0_27
*24 FILLER_0_29
*25 FILLER_0_3
*26 FILLER_0_41
*27 FILLER_0_53
*28 FILLER_0_57
*29 FILLER_0_69
*30 FILLER_1_15
*31 FILLER_1_27
*32 FILLER_1_3
*33 FILLER_1_39
*34 FILLER_1_51
*35 FILLER_1_55
*36 FILLER_1_57
*37 FILLER_1_69
*38 FILLER_2_19
*39 FILLER_2_27
*40 FILLER_2_29
*41 FILLER_2_41
*42 FILLER_2_53
*43 FILLER_2_65
*44 FILLER_2_7
*45 FILLER_2_77
*46 FILLER_3_11
*47 FILLER_3_16
*48 FILLER_3_28
*49 FILLER_3_3
*50 FILLER_3_40
*51 FILLER_3_52
*52 FILLER_3_57
*53 FILLER_3_69
*54 FILLER_4_18
*55 FILLER_4_26
*56 FILLER_4_29
*57 FILLER_4_41
*58 FILLER_4_53
*59 FILLER_4_65
*60 FILLER_4_7
*61 FILLER_4_70
*62 FILLER_5_10
*63 FILLER_5_28
*64 FILLER_5_40
*65 FILLER_5_52
*66 FILLER_5_57
*67 FILLER_5_6
*68 FILLER_5_69
*69 FILLER_6_19
*70 FILLER_6_27
*71 FILLER_6_29
*72 FILLER_6_41
*73 FILLER_6_53
*74 FILLER_6_65
*75 FILLER_6_7
*76 FILLER_6_77
*77 FILLER_7_18
*78 FILLER_7_30
*79 FILLER_7_42
*80 FILLER_7_54
*81 FILLER_7_57
*82 FILLER_7_6
*83 FILLER_7_69
*84 FILLER_8_15
*85 FILLER_8_27
*86 FILLER_8_29
*87 FILLER_8_3
*88 FILLER_8_41
*89 FILLER_8_53
*90 FILLER_8_65
*91 FILLER_8_77
*92 FILLER_9_15
*93 FILLER_9_27
*94 FILLER_9_29
*95 FILLER_9_3
*96 FILLER_9_41
*97 FILLER_9_53
*98 FILLER_9_57
*99 FILLER_9_69
*100 PHY_EDGE_ROW_0_Left_10
*101 PHY_EDGE_ROW_0_Right_0
*102 PHY_EDGE_ROW_1_Left_11
*103 PHY_EDGE_ROW_1_Right_1
*104 PHY_EDGE_ROW_2_Left_12
*105 PHY_EDGE_ROW_2_Right_2
*106 PHY_EDGE_ROW_3_Left_13
*107 PHY_EDGE_ROW_3_Right_3
*108 PHY_EDGE_ROW_4_Left_14
*109 PHY_EDGE_ROW_4_Right_4
*110 PHY_EDGE_ROW_5_Left_15
*111 PHY_EDGE_ROW_5_Right_5
*112 PHY_EDGE_ROW_6_Left_16
*113 PHY_EDGE_ROW_6_Right_6
*114 PHY_EDGE_ROW_7_Left_17
*115 PHY_EDGE_ROW_7_Right_7
*116 PHY_EDGE_ROW_8_Left_18
*117 PHY_EDGE_ROW_8_Right_8
*118 PHY_EDGE_ROW_9_Left_19
*119 PHY_EDGE_ROW_9_Right_9
*120 TAP_TAPCELL_ROW_0_20
*121 TAP_TAPCELL_ROW_0_21
*122 TAP_TAPCELL_ROW_1_22
*123 TAP_TAPCELL_ROW_2_23
*124 TAP_TAPCELL_ROW_3_24
*125 TAP_TAPCELL_ROW_4_25
*126 TAP_TAPCELL_ROW_5_26
*127 TAP_TAPCELL_ROW_6_27
*128 TAP_TAPCELL_ROW_7_28
*129 TAP_TAPCELL_ROW_8_29
*130 TAP_TAPCELL_ROW_9_30
*131 TAP_TAPCELL_ROW_9_31
*132 _2_
*133 _3_
*134 _4_
*135 _5_
*136 _6_
*137 _7_
*138 _8_
*139 input1
*140 input2
*141 input3
*142 input4
*143 output5
*144 output6
*145 output7
*146 output8

*PORTS
A[0] I
A[1] I
B[0] I
B[1] I
P[0] O
P[1] O
P[2] O
P[3] O

*D_NET *1 0.000670164
*CONN
*P A[0] I
*I *139:A I *D sky130_fd_sc_hd__clkbuf_1
*CAP
1 A[0] 0.000305702
2 *139:A 0.000305702
3 *139:A P[1] 2.87684e-05
4 *139:A P[3] 2.99915e-05
*RES
1 A[0] *139:A 21.391 
*END

*D_NET *2 0.000643302
*CONN
*P A[1] I
*I *140:A I *D sky130_fd_sc_hd__buf_1
*CAP
1 A[1] 0.00028007
2 *140:A 0.00028007
3 *140:A P[0] 8.31618e-05
*RES
1 A[1] *140:A 19.9443 
*END

*D_NET *3 0.000498079
*CONN
*P B[0] I
*I *141:A I *D sky130_fd_sc_hd__buf_1
*CAP
1 B[0] 0.000200075
2 *141:A 0.000200075
3 *141:A P[0] 8.57347e-05
4 *141:A *15:12 1.21955e-05
*RES
1 B[0] *141:A 18.73 
*END

*D_NET *4 0.000574322
*CONN
*P B[1] I
*I *142:A I *D sky130_fd_sc_hd__buf_1
*CAP
1 B[1] 0.000275863
2 *142:A 0.000275863
3 *142:A P[1] 2.25951e-05
*RES
1 B[1] *142:A 20.4803 
*END

*D_NET *5 0.000576881
*CONN
*P P[0] O
*I *143:X O *D sky130_fd_sc_hd__buf_2
*CAP
1 P[0] 0.000203992
2 *143:X 0.000203992
3 P[0] *143:A 0
4 *140:A P[0] 8.31618e-05
5 *141:A P[0] 8.57347e-05
*RES
1 *143:X P[0] 18.8021 
*END

*D_NET *6 0.000531321
*CONN
*P P[1] O
*I *144:X O *D sky130_fd_sc_hd__buf_2
*CAP
1 P[1] 0.00022967
2 *144:X 0.00022967
3 P[1] *16:12 2.06178e-05
4 *139:A P[1] 2.87684e-05
5 *142:A P[1] 2.25951e-05
*RES
1 *144:X P[1] 18.1949 
*END

*D_NET *7 0.000635508
*CONN
*P P[2] O
*I *145:X O *D sky130_fd_sc_hd__buf_2
*CAP
1 P[2] 0.000302758
2 *145:X 0.000302758
3 P[2] P[3] 2.99915e-05
*RES
1 *145:X P[2] 20.891 
*END

*D_NET *8 0.000779072
*CONN
*P P[3] O
*I *146:X O *D sky130_fd_sc_hd__buf_2
*CAP
1 P[3] 0.000359545
2 *146:X 0.000359545
3 P[3] *145:A 0
4 P[2] P[3] 2.99915e-05
5 *139:A P[3] 2.99915e-05
*RES
1 *146:X P[3] 21.4981 
*END

*D_NET *11 0.00200975
*CONN
*I *136:A I *D sky130_fd_sc_hd__and2_1
*I *137:C I *D sky130_fd_sc_hd__and3_1
*I *134:A I *D sky130_fd_sc_hd__inv_2
*I *133:Y O *D sky130_fd_sc_hd__nand4_1
*CAP
1 *136:A 0.000179754
2 *137:C 5.66911e-05
3 *134:A 0.000117045
4 *133:Y 2.72852e-05
5 *11:10 0.000304308
6 *11:6 0.000337612
7 *134:A *145:A 0
8 *134:A *146:A 4.15914e-05
9 *136:A *133:A 0.000142856
10 *136:A *133:B 0.000172309
11 *136:A *15:25 0.000338602
12 *11:6 *133:A 5.33005e-05
13 *11:6 *133:B 9.60875e-05
14 *11:6 *135:B2 1.55885e-05
15 *11:10 *137:A 0
16 *11:10 *137:B 0.000100823
17 *11:10 *146:A 2.58997e-05
*RES
1 *133:Y *11:6 10.2464 
2 *11:6 *11:10 7.35714 
3 *11:10 *134:A 15.9786 
4 *11:10 *137:C 14.4071 
5 *11:6 *136:A 14.3714 
*END

*D_NET *12 0.000425833
*CONN
*I *136:B I *D sky130_fd_sc_hd__and2_1
*I *135:X O *D sky130_fd_sc_hd__a22o_1
*CAP
1 *136:B 6.10735e-05
2 *135:X 6.10735e-05
3 *136:B *137:B 0
4 *136:B *144:A 1.02504e-05
5 *136:B *14:25 0.000142856
6 *136:B *14:29 5.80706e-06
7 *136:B *15:25 0.000144773
*RES
1 *135:X *136:B 29.6893 
*END

*D_NET *13 0.000892838
*CONN
*I *135:B2 I *D sky130_fd_sc_hd__a22o_1
*I *133:D I *D sky130_fd_sc_hd__nand4_1
*I *139:X O *D sky130_fd_sc_hd__clkbuf_1
*CAP
1 *135:B2 7.96963e-05
2 *133:D 0
3 *139:X 0.000132254
4 *13:8 0.00021195
5 *135:B2 *133:A 2.89114e-05
6 *135:B2 *133:B 3.86284e-05
7 *135:B2 *135:A1 3.99614e-06
8 *135:B2 *135:B1 4.85596e-05
9 *135:B2 *14:25 0
10 *135:B2 *16:12 5.71472e-05
11 *135:B2 *16:19 0.000129515
12 *13:8 *16:12 0.000146591
13 *11:6 *135:B2 1.55885e-05
*RES
1 *139:X *13:8 12.6214 
2 *13:8 *133:D 9.3 
3 *13:8 *135:B2 12.3357 
*END

*D_NET *14 0.00607987
*CONN
*I *135:A2 I *D sky130_fd_sc_hd__a22o_1
*I *133:B I *D sky130_fd_sc_hd__nand4_1
*I *137:A I *D sky130_fd_sc_hd__and3_1
*I *132:A_N I *D sky130_fd_sc_hd__and2b_1
*I *140:X O *D sky130_fd_sc_hd__buf_1
*CAP
1 *135:A2 0
2 *133:B 0.000266652
3 *137:A 0.000220822
4 *132:A_N 0
5 *140:X 0.00052556
6 *14:29 0.000559437
7 *14:25 0.000945803
8 *14:10 0.0013994
9 *133:B *135:A1 0
10 *14:10 *138:A 0
11 *14:10 *143:A 0
12 *14:25 *135:A1 1.04232e-05
13 *14:25 *135:B1 5.7661e-06
14 *14:25 *143:A 0
15 *14:25 *15:25 0.00169032
16 *14:29 *137:B 0
17 *135:B2 *133:B 3.86284e-05
18 *135:B2 *14:25 0
19 *136:A *133:B 0.000172309
20 *136:B *14:25 0.000142856
21 *136:B *14:29 5.80706e-06
22 *11:6 *133:B 9.60875e-05
23 *11:10 *137:A 0
*RES
1 *140:X *14:10 22.0321 
2 *14:10 *132:A_N 13.8 
3 *14:10 *14:25 23.4464 
4 *14:25 *14:29 5.53571 
5 *14:29 *137:A 17.4071 
6 *14:29 *133:B 18.0455 
7 *14:25 *135:A2 9.3 
*END

*D_NET *15 0.00505844
*CONN
*I *135:A1 I *D sky130_fd_sc_hd__a22o_1
*I *133:A I *D sky130_fd_sc_hd__nand4_1
*I *132:B I *D sky130_fd_sc_hd__and2b_1
*I *141:X O *D sky130_fd_sc_hd__buf_1
*CAP
1 *135:A1 1.82115e-05
2 *133:A 4.7288e-05
3 *132:B 0
4 *141:X 0.000387081
5 *15:25 0.000784433
6 *15:12 0.00110601
7 *133:A *135:B1 3.48705e-05
8 *15:12 *138:A 5.52302e-05
9 *15:12 *143:A 0.000199934
10 *133:B *135:A1 0
11 *135:B2 *133:A 2.89114e-05
12 *135:B2 *135:A1 3.99614e-06
13 *136:A *133:A 0.000142856
14 *136:A *15:25 0.000338602
15 *136:B *15:25 0.000144773
16 *141:A *15:12 1.21955e-05
17 *11:6 *133:A 5.33005e-05
18 *14:25 *135:A1 1.04232e-05
19 *14:25 *15:25 0.00169032
*RES
1 *141:X *15:12 25.6036 
2 *15:12 *132:B 9.3 
3 *15:12 *15:25 20.7143 
4 *15:25 *133:A 11.0679 
5 *15:25 *135:A1 9.72857 
*END

*D_NET *16 0.00206337
*CONN
*I *135:B1 I *D sky130_fd_sc_hd__a22o_1
*I *137:B I *D sky130_fd_sc_hd__and3_1
*I *133:C I *D sky130_fd_sc_hd__nand4_1
*I *142:X O *D sky130_fd_sc_hd__buf_1
*CAP
1 *135:B1 0.00011264
2 *137:B 0.000157596
3 *133:C 0
4 *142:X 0.000397536
5 *16:19 0.000362202
6 *16:12 0.000489502
7 P[1] *16:12 2.06178e-05
8 *133:A *135:B1 3.48705e-05
9 *135:B2 *135:B1 4.85596e-05
10 *135:B2 *16:12 5.71472e-05
11 *135:B2 *16:19 0.000129515
12 *136:B *137:B 0
13 *11:10 *137:B 0.000100823
14 *13:8 *16:12 0.000146591
15 *14:25 *135:B1 5.7661e-06
16 *14:29 *137:B 0
*RES
1 *142:X *16:12 24.7643 
2 *16:12 *133:C 9.3 
3 *16:12 *16:19 1.35714 
4 *16:19 *137:B 20.8536 
5 *16:19 *135:B1 11.0857 
*END

*D_NET *17 0.000737529
*CONN
*I *143:A I *D sky130_fd_sc_hd__buf_2
*I *138:X O *D sky130_fd_sc_hd__clkbuf_1
*CAP
1 *143:A 0.000249159
2 *138:X 0.000249159
3 *143:A *138:A 3.92757e-05
4 P[0] *143:A 0
5 *14:10 *143:A 0
6 *14:25 *143:A 0
7 *15:12 *143:A 0.000199934
*RES
1 *138:X *143:A 32.9571 
*END

*D_NET *18 0.0010579
*CONN
*I *144:A I *D sky130_fd_sc_hd__buf_2
*I *136:X O *D sky130_fd_sc_hd__and2_1
*CAP
1 *144:A 0.000523824
2 *136:X 0.000523824
3 *136:B *144:A 1.02504e-05
*RES
1 *136:X *144:A 36.35 
*END

*D_NET *19 0.00108094
*CONN
*I *145:A I *D sky130_fd_sc_hd__buf_2
*I *137:X O *D sky130_fd_sc_hd__and3_1
*CAP
1 *145:A 0.000452719
2 *137:X 0.000452719
3 *145:A *146:A 0.000175502
4 P[3] *145:A 0
5 *134:A *145:A 0
*RES
1 *137:X *145:A 34.975 
*END

*D_NET *20 0.000680011
*CONN
*I *146:A I *D sky130_fd_sc_hd__buf_2
*I *134:Y O *D sky130_fd_sc_hd__inv_2
*CAP
1 *146:A 0.000218509
2 *134:Y 0.000218509
3 *134:A *146:A 4.15914e-05
4 *145:A *146:A 0.000175502
5 *11:10 *146:A 2.58997e-05
*RES
1 *134:Y *146:A 32.6536 
*END

*D_NET *21 0.000377426
*CONN
*I *138:A I *D sky130_fd_sc_hd__clkbuf_1
*I *132:X O *D sky130_fd_sc_hd__and2b_1
*CAP
1 *138:A 0.00014146
2 *132:X 0.00014146
3 *143:A *138:A 3.92757e-05
4 *14:10 *138:A 0
5 *15:12 *138:A 5.52302e-05
*RES
1 *132:X *138:A 30.0821 
*END
