*SPEF "ieee 1481-1999"
*DESIGN "mult4_SARSA_RUIDO_e9_SARSA_RUIDO_e9_SarsaNStepsRuido_e9_SARSA_RUIDO_e9"
*DATE "11:49:47 Wednesday September 17, 2025"
*VENDOR "The OpenROAD Project"
*PROGRAM "OpenROAD"
*VERSION "edf00dff99f6c40d67a30c0e22a8191c5d2ed9d6"
*DESIGN_FLOW "NAME_SCOPE LOCAL" "PIN_CAP NONE"
*DIVIDER /
*DELIMITER :
*BUS_DELIMITER []
*T_UNIT 1 NS
*C_UNIT 1 PF
*R_UNIT 1 OHM
*L_UNIT 1 HENRY

*NAME_MAP
*1 A[0]
*2 A[1]
*3 A[2]
*4 A[3]
*5 B[0]
*6 B[1]
*7 B[2]
*8 B[3]
*9 P[0]
*10 P[1]
*11 P[2]
*12 P[3]
*13 P[4]
*14 P[5]
*15 P[6]
*16 P[7]
*19 _000_
*20 _001_
*21 _002_
*22 _003_
*23 _004_
*24 _005_
*25 _006_
*26 _007_
*27 _008_
*28 _009_
*29 _010_
*30 _011_
*31 _012_
*32 _013_
*33 _014_
*34 _015_
*35 _016_
*36 _017_
*37 _018_
*38 _019_
*39 _020_
*40 _021_
*41 _022_
*42 _023_
*43 _024_
*44 _025_
*45 _026_
*46 _027_
*47 _028_
*48 _029_
*49 _030_
*50 _031_
*51 _032_
*52 _033_
*53 _034_
*54 _035_
*55 _036_
*56 _037_
*57 _038_
*58 _039_
*59 _040_
*60 _041_
*61 _042_
*62 _043_
*63 _044_
*64 _045_
*65 _046_
*66 _047_
*67 _048_
*68 _049_
*69 net1
*70 net10
*71 net11
*72 net12
*73 net13
*74 net14
*75 net15
*76 net16
*77 net2
*78 net3
*79 net4
*80 net5
*81 net6
*82 net7
*83 net8
*84 net9
*85 FILLER_0_11
*86 FILLER_0_18
*87 FILLER_0_29
*88 FILLER_0_3
*89 FILLER_0_49
*90 FILLER_0_62
*91 FILLER_0_74
*92 FILLER_0_80
*93 FILLER_1_13
*94 FILLER_1_20
*95 FILLER_1_26
*96 FILLER_1_46
*97 FILLER_1_50
*98 FILLER_1_68
*99 FILLER_1_80
*100 FILLER_2_13
*101 FILLER_2_19
*102 FILLER_2_26
*103 FILLER_2_37
*104 FILLER_2_45
*105 FILLER_2_57
*106 FILLER_2_69
*107 FILLER_3_15
*108 FILLER_3_27
*109 FILLER_3_38
*110 FILLER_3_55
*111 FILLER_3_57
*112 FILLER_3_6
*113 FILLER_3_65
*114 FILLER_3_79
*115 FILLER_4_17
*116 FILLER_4_29
*117 FILLER_4_34
*118 FILLER_4_41
*119 FILLER_4_53
*120 FILLER_4_65
*121 FILLER_4_7
*122 FILLER_4_70
*123 FILLER_4_76
*124 FILLER_5_18
*125 FILLER_5_24
*126 FILLER_5_28
*127 FILLER_5_37
*128 FILLER_5_45
*129 FILLER_5_53
*130 FILLER_5_57
*131 FILLER_5_65
*132 FILLER_5_76
*133 FILLER_6_27
*134 FILLER_6_37
*135 FILLER_6_52
*136 FILLER_6_64
*137 FILLER_6_74
*138 FILLER_6_80
*139 FILLER_7_16
*140 FILLER_7_28
*141 FILLER_7_40
*142 FILLER_7_52
*143 FILLER_7_57
*144 FILLER_7_65
*145 FILLER_7_75
*146 FILLER_8_20
*147 FILLER_8_29
*148 FILLER_8_3
*149 FILLER_8_48
*150 FILLER_8_73
*151 FILLER_9_15
*152 FILLER_9_3
*153 FILLER_9_36
*154 FILLER_9_48
*155 FILLER_9_67
*156 FILLER_9_75
*157 PHY_EDGE_ROW_0_Left_10
*158 PHY_EDGE_ROW_0_Right_0
*159 PHY_EDGE_ROW_1_Left_11
*160 PHY_EDGE_ROW_1_Right_1
*161 PHY_EDGE_ROW_2_Left_12
*162 PHY_EDGE_ROW_2_Right_2
*163 PHY_EDGE_ROW_3_Left_13
*164 PHY_EDGE_ROW_3_Right_3
*165 PHY_EDGE_ROW_4_Left_14
*166 PHY_EDGE_ROW_4_Right_4
*167 PHY_EDGE_ROW_5_Left_15
*168 PHY_EDGE_ROW_5_Right_5
*169 PHY_EDGE_ROW_6_Left_16
*170 PHY_EDGE_ROW_6_Right_6
*171 PHY_EDGE_ROW_7_Left_17
*172 PHY_EDGE_ROW_7_Right_7
*173 PHY_EDGE_ROW_8_Left_18
*174 PHY_EDGE_ROW_8_Right_8
*175 PHY_EDGE_ROW_9_Left_19
*176 PHY_EDGE_ROW_9_Right_9
*177 TAP_TAPCELL_ROW_0_20
*178 TAP_TAPCELL_ROW_0_21
*179 TAP_TAPCELL_ROW_1_22
*180 TAP_TAPCELL_ROW_2_23
*181 TAP_TAPCELL_ROW_3_24
*182 TAP_TAPCELL_ROW_4_25
*183 TAP_TAPCELL_ROW_5_26
*184 TAP_TAPCELL_ROW_6_27
*185 TAP_TAPCELL_ROW_7_28
*186 TAP_TAPCELL_ROW_8_29
*187 TAP_TAPCELL_ROW_9_30
*188 TAP_TAPCELL_ROW_9_31
*189 _050_
*190 _051_
*191 _052_
*192 _053_
*193 _054_
*194 _055_
*195 _056_
*196 _057_
*197 _058_
*198 _059_
*199 _060_
*200 _061_
*201 _062_
*202 _063_
*203 _064_
*204 _065_
*205 _066_
*206 _067_
*207 _068_
*208 _069_
*209 _070_
*210 _071_
*211 _072_
*212 _073_
*213 _074_
*214 _075_
*215 _076_
*216 _077_
*217 _078_
*218 _079_
*219 _080_
*220 _081_
*221 _082_
*222 _083_
*223 _084_
*224 _085_
*225 _086_
*226 _087_
*227 _088_
*228 _089_
*229 _090_
*230 _091_
*231 _092_
*232 _093_
*233 _094_
*234 _095_
*235 _096_
*236 _097_
*237 _098_
*238 _099_
*239 _100_
*240 _101_
*241 _102_
*242 _103_
*243 _104_
*244 _105_
*245 _106_
*246 _107_
*247 input1
*248 input2
*249 input3
*250 input4
*251 input5
*252 input6
*253 input7
*254 input8
*255 output10
*256 output11
*257 output12
*258 output13
*259 output14
*260 output15
*261 output16
*262 output9

*PORTS
A[0] I
A[1] I
A[2] I
A[3] I
B[0] I
B[1] I
B[2] I
B[3] I
P[0] O
P[1] O
P[2] O
P[3] O
P[4] O
P[5] O
P[6] O
P[7] O

*D_NET *1 0.000941506
*CONN
*P A[0] I
*I *247:A I *D sky130_fd_sc_hd__clkbuf_2
*CAP
1 A[0] 0.000470753
2 *247:A 0.000470753
3 *247:A P[0] 0
4 *247:A P[2] 0
*RES
1 A[0] *247:A 47.7357 
*END

*D_NET *2 0.000945453
*CONN
*P A[1] I
*I *248:A I *D sky130_fd_sc_hd__dlymetal6s2s_1
*CAP
1 A[1] 0.000439231
2 *248:A 0.000439231
3 *248:A P[0] 0
4 *248:A P[1] 0
5 *248:A *195:C1 1.19796e-05
6 *248:A *84:6 5.50106e-05
*RES
1 A[1] *248:A 47.3214 
*END

*D_NET *3 0.000786482
*CONN
*P A[2] I
*I *249:A I *D sky130_fd_sc_hd__clkbuf_2
*CAP
1 A[2] 0.000368174
2 *249:A 0
3 *3:17 0.000368174
4 *3:17 *5:13 2.12457e-05
5 *3:17 *7:17 2.88889e-05
*RES
1 A[2] *3:17 28.3391 
2 *3:17 *249:A 23 
*END

*D_NET *4 0.000616196
*CONN
*P A[3] I
*I *250:A I *D sky130_fd_sc_hd__dlymetal6s2s_1
*CAP
1 A[3] 0.000297475
2 *250:A 0.000297475
3 *250:A *254:A 2.12457e-05
*RES
1 A[3] *250:A 49.8062 
*END

*D_NET *5 0.000801763
*CONN
*P B[0] I
*I *251:A I *D sky130_fd_sc_hd__buf_1
*CAP
1 B[0] 0.000376303
2 *251:A 0
3 *5:13 0.000376303
4 *5:13 *252:A 2.79122e-05
5 *5:13 *80:8 0
6 *3:17 *5:13 2.12457e-05
*RES
1 B[0] *5:13 29.346 
2 *5:13 *251:A 23 
*END

*D_NET *6 0.00062492
*CONN
*P B[1] I
*I *252:A I *D sky130_fd_sc_hd__dlymetal6s2s_1
*CAP
1 B[1] 0.000298504
2 *252:A 0.000298504
3 *5:13 *252:A 2.79122e-05
*RES
1 B[1] *252:A 49.8062 
*END

*D_NET *7 0.00068614
*CONN
*P B[2] I
*I *253:A I *D sky130_fd_sc_hd__dlymetal6s2s_1
*CAP
1 B[2] 0.000314669
2 *253:A 0
3 *7:17 0.000314669
4 *7:17 *254:A 2.79122e-05
5 *3:17 *7:17 2.88889e-05
*RES
1 B[2] *7:17 27.5105 
2 *7:17 *253:A 23 
*END

*D_NET *8 0.000563592
*CONN
*P B[3] I
*I *254:A I *D sky130_fd_sc_hd__dlymetal6s2s_1
*CAP
1 B[3] 0.000257217
2 *254:A 0.000257217
3 *254:A *79:12 0
4 *250:A *254:A 2.12457e-05
5 *7:17 *254:A 2.79122e-05
*RES
1 B[3] *254:A 47.7832 
*END

*D_NET *9 0.00127403
*CONN
*P P[0] O
*I *262:X O *D sky130_fd_sc_hd__buf_2
*CAP
1 P[0] 0.000602718
2 *262:X 0.000602718
3 P[0] *262:A 6.85985e-05
4 *247:A P[0] 0
5 *248:A P[0] 0
*RES
1 *262:X P[0] 48.9993 
*END

*D_NET *10 0.000992833
*CONN
*P P[1] O
*I *255:X O *D sky130_fd_sc_hd__buf_2
*CAP
1 P[1] 0.000445794
2 *255:X 0.000445794
3 P[1] *195:C1 9.84794e-05
4 P[1] *77:28 2.76611e-06
5 *248:A P[1] 0
*RES
1 *255:X P[1] 47.0936 
*END

*D_NET *11 0.00100023
*CONN
*P P[2] O
*I *256:X O *D sky130_fd_sc_hd__buf_2
*CAP
1 P[2] 0.000500113
2 *256:X 0.000500113
3 *247:A P[2] 0
*RES
1 *256:X P[2] 47.57 
*END

*D_NET *12 0.000739063
*CONN
*P P[3] O
*I *257:X O *D sky130_fd_sc_hd__buf_2
*CAP
1 P[3] 0.000260737
2 *257:X 0.000260737
3 P[3] P[4] 8.73764e-05
4 P[3] *72:8 0.000130212
*RES
1 *257:X P[3] 48.5734 
*END

*D_NET *13 0.000604553
*CONN
*P P[4] O
*I *258:X O *D sky130_fd_sc_hd__buf_2
*CAP
1 P[4] 0.000258588
2 *258:X 0.000258588
3 P[4] *224:B 0
4 P[3] P[4] 8.73764e-05
*RES
1 *258:X P[4] 47.8691 
*END

*D_NET *14 0.000682484
*CONN
*P P[5] O
*I *259:X O *D sky130_fd_sc_hd__buf_2
*CAP
1 P[5] 0.000308505
2 *259:X 0.000308505
3 P[5] *74:10 6.54744e-05
*RES
1 *259:X P[5] 48.5734 
*END

*D_NET *15 0.00133525
*CONN
*P P[6] O
*I *260:X O *D sky130_fd_sc_hd__buf_2
*CAP
1 P[6] 6.5784e-05
2 *260:X 0.000590326
3 *15:10 0.00065611
4 *15:10 *260:A 2.30292e-05
*RES
1 *260:X *15:10 49.5275 
2 *15:10 P[6] 1.50179 
*END

*D_NET *16 0.00157516
*CONN
*P P[7] O
*I *261:X O *D sky130_fd_sc_hd__buf_2
*CAP
1 P[7] 0.000743777
2 *261:X 0
3 *16:6 0.000743777
4 P[7] *244:C1 0
5 P[7] *63:8 0
6 P[7] *76:8 8.76088e-05
*RES
1 *261:X *16:6 38 
2 *16:6 P[7] 15.08 
*END

*D_NET *19 0.00113708
*CONN
*I *195:A1 I *D sky130_fd_sc_hd__a211oi_1
*I *193:A2 I *D sky130_fd_sc_hd__a31oi_1
*I *189:Y O *D sky130_fd_sc_hd__inv_2
*CAP
1 *195:A1 2.56752e-05
2 *193:A2 6.24121e-05
3 *189:Y 9.73994e-05
4 *19:12 0.000131041
5 *19:8 0.000140353
6 *193:A2 *195:A2 5.50106e-05
7 *193:A2 *22:6 0.000187129
8 *193:A2 *77:28 4.63203e-05
9 *195:A1 *195:C1 1.37232e-05
10 *195:A1 *77:28 1.05569e-05
11 *19:8 *77:28 6.68793e-05
12 *19:12 *192:A 7.1349e-05
13 *19:12 *195:C1 2.4754e-05
14 *19:12 *255:A 5.67058e-05
15 *19:12 *22:6 0.00010018
16 *19:12 *77:28 4.75937e-05
*RES
1 *189:Y *19:8 39.9057 
2 *19:8 *19:12 17.5271 
3 *19:12 *193:A2 25.5479 
4 *19:12 *195:A1 23.8493 
*END

*D_NET *20 0.000476578
*CONN
*I *206:A I *D sky130_fd_sc_hd__or4b_1
*I *190:Y O *D sky130_fd_sc_hd__inv_2
*CAP
1 *206:A 0
2 *190:Y 0.000118094
3 *20:10 0.000118094
4 *20:10 *226:A 2.76611e-06
5 *20:10 *21:46 1.02387e-05
6 *20:10 *32:12 0.000141879
7 *20:10 *82:28 5.61311e-05
8 *20:10 *83:31 2.93747e-05
*RES
1 *190:Y *20:10 40.8793 
2 *20:10 *206:A 38 
*END

*D_NET *21 0.00316122
*CONN
*I *206:B I *D sky130_fd_sc_hd__or4b_1
*I *227:A1 I *D sky130_fd_sc_hd__a211o_1
*I *225:A2 I *D sky130_fd_sc_hd__a31oi_1
*I *191:Y O *D sky130_fd_sc_hd__inv_2
*CAP
1 *206:B 0
2 *227:A1 0
3 *225:A2 0
4 *191:Y 1.50092e-05
5 *21:46 0.000190389
6 *21:30 0.000157772
7 *21:22 0.000562134
8 *21:6 0.00060976
9 *21:6 *27:21 2.31687e-05
10 *21:6 *83:56 5.56356e-05
11 *21:22 *226:D 0.00014196
12 *21:22 *227:A2 0.000176789
13 *21:22 *227:C1 0.00010018
14 *21:22 *238:B 0.000335495
15 *21:22 *238:C 6.25657e-05
16 *21:22 *27:21 5.74253e-05
17 *21:22 *79:79 1.22822e-05
18 *21:22 *83:14 9.16557e-05
19 *21:22 *83:56 5.3304e-05
20 *21:30 *51:10 6.95357e-05
21 *21:30 *54:8 0.000194318
22 *21:30 *78:47 4.6318e-06
23 *21:30 *78:69 1.42006e-05
24 *21:30 *82:6 5.50049e-05
25 *21:30 *82:15 5.50106e-05
26 *21:46 *226:A 0
27 *21:46 *27:10 4.587e-05
28 *21:46 *32:12 3.04568e-05
29 *21:46 *83:41 0
30 *21:46 *83:56 3.64246e-05
31 *20:10 *21:46 1.02387e-05
*RES
1 *191:Y *21:6 23.6214 
2 *21:6 *21:22 11.1443 
3 *21:22 *21:30 33.7079 
4 *21:30 *225:A2 23 
5 *21:22 *227:A1 23 
6 *21:6 *21:46 33.6664 
7 *21:46 *206:B 23 
*END

*D_NET *22 0.000915248
*CONN
*I *195:B1 I *D sky130_fd_sc_hd__a211oi_1
*I *193:Y O *D sky130_fd_sc_hd__a31oi_1
*CAP
1 *195:B1 0
2 *193:Y 6.33235e-05
3 *22:6 6.33235e-05
4 *22:6 *192:A 0.000402806
5 *22:6 *193:A1 9.84851e-05
6 *193:A2 *22:6 0.000187129
7 *19:12 *22:6 0.00010018
*RES
1 *193:Y *22:6 27.4329 
2 *22:6 *195:B1 23 
*END

*D_NET *23 0.00476819
*CONN
*I *217:A I *D sky130_fd_sc_hd__or2_1
*I *214:A I *D sky130_fd_sc_hd__and2_1
*I *195:C1 I *D sky130_fd_sc_hd__a211oi_1
*I *194:X O *D sky130_fd_sc_hd__and3_1
*CAP
1 *217:A 0.000438311
2 *214:A 0
3 *195:C1 0.000305457
4 *194:X 0
5 *23:39 0.00112521
6 *23:6 0.000992358
7 *195:C1 *192:A 4.79612e-05
8 *195:C1 *192:B 8.76088e-05
9 *195:C1 *255:A 0.00010018
10 *195:C1 *77:16 6.08109e-05
11 *195:C1 *77:28 0.000185428
12 *195:C1 *84:6 6.17437e-06
13 *195:C1 *84:12 0
14 *217:A *217:B 0.000118211
15 *217:A *219:B1 0.000191639
16 *217:A *41:6 5.50049e-05
17 *217:A *44:8 3.53115e-05
18 *23:39 *192:B 2.60152e-05
19 *23:39 *194:B 3.93548e-05
20 *23:39 *194:C 0.000142238
21 *23:39 *196:B 9.94453e-05
22 *23:39 *196:C 2.36778e-05
23 *23:39 *199:A 5.69371e-05
24 *23:39 *217:B 3.91386e-05
25 *23:39 *24:8 9.8971e-06
26 *23:39 *71:10 0.000313872
27 *23:39 *77:16 3.70094e-05
28 *23:39 *77:28 5.3304e-05
29 *23:39 *81:36 2.86929e-05
30 P[1] *195:C1 9.84794e-05
31 *195:A1 *195:C1 1.37232e-05
32 *248:A *195:C1 1.19796e-05
33 *19:12 *195:C1 2.4754e-05
*RES
1 *194:X *23:6 38 
2 *23:6 *195:C1 46.4929 
3 *23:6 *23:39 30.6807 
4 *23:39 *214:A 23 
5 *23:39 *217:A 31.12 
*END

*D_NET *24 0.00105312
*CONN
*I *198:C I *D sky130_fd_sc_hd__and3_1
*I *199:A I *D sky130_fd_sc_hd__xnor2_1
*I *196:X O *D sky130_fd_sc_hd__and3b_1
*CAP
1 *198:C 0.000156237
2 *199:A 6.73029e-05
3 *196:X 5.19439e-05
4 *24:8 0.000275483
5 *198:C *199:B 8.4047e-05
6 *198:C *69:12 9.44366e-05
7 *198:C *69:20 5.3304e-05
8 *198:C *77:59 7.6144e-05
9 *199:A *199:B 6.25829e-05
10 *199:A *77:59 6.48049e-05
11 *23:39 *199:A 5.69371e-05
12 *23:39 *24:8 9.8971e-06
*RES
1 *196:X *24:8 38.6214 
2 *24:8 *199:A 39.9471 
3 *24:8 *198:C 40.8586 
*END

*D_NET *25 0.00293751
*CONN
*I *206:D_N I *D sky130_fd_sc_hd__or4b_1
*I *201:C I *D sky130_fd_sc_hd__and3_1
*I *199:B I *D sky130_fd_sc_hd__xnor2_1
*I *197:Y O *D sky130_fd_sc_hd__nand2_1
*CAP
1 *206:D_N 0.000256565
2 *201:C 7.5228e-05
3 *199:B 0.000231522
4 *197:Y 0.000144371
5 *25:19 0.000485789
6 *25:8 0.000529888
7 *199:B *198:B 3.76761e-05
8 *199:B *77:59 0.000116321
9 *201:C *83:31 2.65157e-07
10 *201:C *83:72 2.13733e-05
11 *206:D_N *207:B 0.000140927
12 *206:D_N *28:8 0.000166513
13 *206:D_N *33:10 7.43114e-05
14 *206:D_N *77:78 6.22448e-06
15 *206:D_N *83:41 0.000166513
16 *25:8 *69:54 0.000183792
17 *25:19 *198:B 2.50756e-05
18 *25:19 *77:59 3.72639e-05
19 *25:19 *77:78 6.0067e-05
20 *25:19 *82:58 3.11916e-05
21 *198:C *199:B 8.4047e-05
22 *199:A *199:B 6.25829e-05
*RES
1 *197:Y *25:8 40.0507 
2 *25:8 *199:B 43.075 
3 *25:8 *25:19 2.96214 
4 *25:19 *201:C 38.9632 
5 *25:19 *206:D_N 44.3593 
*END

*D_NET *26 0.00384335
*CONN
*I *236:A1 I *D sky130_fd_sc_hd__a31o_1
*I *223:A I *D sky130_fd_sc_hd__nand2_1
*I *245:A I *D sky130_fd_sc_hd__or2_1
*I *198:X O *D sky130_fd_sc_hd__and3_1
*CAP
1 *236:A1 0.000334446
2 *223:A 4.69071e-05
3 *245:A 0
4 *198:X 0.000922924
5 *26:19 0.000492594
6 *26:10 0.000244294
7 *26:6 0.00105598
8 *223:A *50:8 5.41288e-05
9 *236:A1 *224:B 7.66188e-05
10 *236:A1 *236:A3 4.9662e-05
11 *236:A1 *48:16 0.000141879
12 *26:6 *43:8 0.000346616
13 *26:10 *246:A 2.46933e-05
14 *26:10 *46:8 0
15 *26:19 *224:B 1.69668e-05
16 *26:19 *236:A3 0
17 *26:19 *246:A 3.56433e-05
18 *26:19 *49:12 0
*RES
1 *198:X *26:6 36.0086 
2 *26:6 *26:10 17.61 
3 *26:10 *245:A 38 
4 *26:10 *26:19 2.25786 
5 *26:19 *223:A 39.0979 
6 *26:19 *236:A1 45.0221 
*END

*D_NET *27 0.00239591
*CONN
*I *209:A I *D sky130_fd_sc_hd__xor2_1
*I *208:A I *D sky130_fd_sc_hd__or2_1
*I *238:C I *D sky130_fd_sc_hd__and3_1
*I *200:Y O *D sky130_fd_sc_hd__nand2_1
*CAP
1 *209:A 0.000214365
2 *208:A 1.9821e-05
3 *238:C 4.71902e-05
4 *200:Y 0.000226893
5 *27:21 0.000611043
6 *27:12 0.000424047
7 *27:10 0.000226893
8 *209:A *208:B 5.54294e-05
9 *209:A *209:B 8.17116e-05
10 *27:10 *207:B 6.17437e-06
11 *27:10 *226:A 0
12 *27:10 *33:10 0.000141954
13 *27:10 *82:15 2.4754e-05
14 *27:10 *82:24 5.50049e-05
15 *27:21 *35:10 6.50721e-06
16 *27:21 *83:41 5.40241e-05
17 *27:21 *83:56 1.10658e-05
18 *21:6 *27:21 2.31687e-05
19 *21:22 *238:C 6.25657e-05
20 *21:22 *27:21 5.74253e-05
21 *21:46 *27:10 4.587e-05
*RES
1 *200:Y *27:10 42.5571 
2 *27:10 *27:12 15 
3 *27:12 *238:C 23.7043 
4 *27:12 *27:21 4.90929 
5 *27:21 *208:A 23.4971 
6 *27:21 *209:A 26.3764 
*END

*D_NET *28 0.000357217
*CONN
*I *207:A I *D sky130_fd_sc_hd__xor2_1
*I *201:X O *D sky130_fd_sc_hd__and3_1
*CAP
1 *207:A 0
2 *201:X 9.53517e-05
3 *28:8 9.53517e-05
4 *206:D_N *28:8 0.000166513
*RES
1 *201:X *28:8 40.2579 
2 *28:8 *207:A 38 
*END

*D_NET *29 0.000511254
*CONN
*I *205:A1 I *D sky130_fd_sc_hd__a21o_1
*I *202:Y O *D sky130_fd_sc_hd__nand2_1
*CAP
1 *205:A1 2.95294e-05
2 *202:Y 0.000116919
3 *29:8 0.000146449
4 *205:A1 *30:14 5.50049e-05
5 *29:8 *31:10 0.000163352
6 *29:8 *80:8 0
*RES
1 *202:Y *29:8 40.2579 
2 *29:8 *205:A1 38.6214 
*END

*D_NET *30 0.00232494
*CONN
*I *216:B1 I *D sky130_fd_sc_hd__o211a_1
*I *205:A2 I *D sky130_fd_sc_hd__a21o_1
*I *203:Y O *D sky130_fd_sc_hd__nand3_1
*CAP
1 *216:B1 0.000530829
2 *205:A2 0
3 *203:Y 0
4 *30:14 0.000261125
5 *30:4 0.000791955
6 *216:B1 *215:A2 0.000184527
7 *216:B1 *215:B1 1.94812e-05
8 *216:B1 *216:A1 6.65127e-05
9 *216:B1 *216:C1 7.24484e-05
10 *216:B1 *80:66 1.32939e-05
11 *30:14 *32:8 9.67842e-05
12 *30:14 *78:10 6.79006e-05
13 *30:14 *79:18 7.03766e-05
14 *30:14 *80:55 9.47033e-05
15 *205:A1 *30:14 5.50049e-05
*RES
1 *203:Y *30:4 23 
2 *30:4 *30:14 35.8829 
3 *30:14 *205:A2 23 
4 *30:4 *216:B1 31.4929 
*END

*D_NET *31 0.00142909
*CONN
*I *228:A I *D sky130_fd_sc_hd__nand2_1
*I *229:A I *D sky130_fd_sc_hd__or2_1
*I *205:B1 I *D sky130_fd_sc_hd__a21o_1
*I *204:X O *D sky130_fd_sc_hd__and4_1
*CAP
1 *228:A 4.91927e-05
2 *229:A 1.9056e-05
3 *205:B1 0
4 *204:X 0.000149393
5 *31:21 0.000172947
6 *31:10 0.000254091
7 *228:A *229:B 8.09199e-05
8 *228:A *37:21 0
9 *228:A *78:8 8.43466e-05
10 *229:A *229:B 1.24376e-05
11 *229:A *55:10 1.14762e-05
12 *229:A *78:8 5.50049e-05
13 *31:10 *202:A 0.000143655
14 *31:10 *79:18 3.97502e-05
15 *31:10 *80:8 0
16 *31:10 *80:55 0.000111852
17 *31:21 *79:18 8.16149e-05
18 *29:8 *31:10 0.000163352
*RES
1 *204:X *31:10 42.1843 
2 *31:10 *205:B1 38 
3 *31:10 *31:21 17.2579 
4 *31:21 *229:A 23.6214 
5 *31:21 *228:A 24.595 
*END

*D_NET *32 0.00305765
*CONN
*I *207:B I *D sky130_fd_sc_hd__xor2_1
*I *206:C I *D sky130_fd_sc_hd__or4b_1
*I *205:X O *D sky130_fd_sc_hd__a21o_1
*CAP
1 *207:B 0.0002732
2 *206:C 0
3 *205:X 0.00030028
4 *32:12 0.000575627
5 *32:8 0.000602707
6 *207:B *33:10 5.38144e-05
7 *32:8 *37:12 0.000487147
8 *32:8 *69:46 0.000316483
9 *32:12 *197:B 1.50445e-05
10 *32:12 *210:A 0
11 *32:12 *82:28 0
12 *32:12 *82:41 1.71223e-05
13 *206:D_N *207:B 0.000140927
14 *20:10 *32:12 0.000141879
15 *21:46 *32:12 3.04568e-05
16 *27:10 *207:B 6.17437e-06
17 *30:14 *32:8 9.67842e-05
*RES
1 *205:X *32:8 46.7207 
2 *32:8 *32:12 20.4271 
3 *32:12 *206:C 23 
4 *32:12 *207:B 27.4329 
*END

*D_NET *33 0.00331049
*CONN
*I *232:A I *D sky130_fd_sc_hd__and3_1
*I *233:A I *D sky130_fd_sc_hd__nand3_1
*I *234:A1 I *D sky130_fd_sc_hd__a21oi_1
*I *206:X O *D sky130_fd_sc_hd__or4b_1
*CAP
1 *232:A 5.59424e-05
2 *233:A 0
3 *234:A1 0
4 *206:X 0.000597435
5 *33:33 0.000427006
6 *33:20 0.000168269
7 *33:12 0.000595275
8 *33:10 0.000653377
9 *232:A *35:10 9.85378e-05
10 *33:10 *34:10 0
11 *33:10 *35:10 0.000223034
12 *33:10 *83:41 0.000136486
13 *33:20 *35:10 8.50457e-05
14 *33:20 *63:8 0
15 *33:33 *47:12 0
16 *206:D_N *33:10 7.43114e-05
17 *207:B *33:10 5.38144e-05
18 *27:10 *33:10 0.000141954
*RES
1 *206:X *33:10 48.6886 
2 *33:10 *33:12 15 
3 *33:12 *33:20 32.2993 
4 *33:20 *234:A1 23 
5 *33:12 *33:33 35.8621 
6 *33:33 *233:A 23 
7 *33:10 *232:A 39.5536 
*END

*D_NET *34 0.000711991
*CONN
*I *209:B I *D sky130_fd_sc_hd__xor2_1
*I *208:B I *D sky130_fd_sc_hd__or2_1
*I *207:X O *D sky130_fd_sc_hd__xor2_1
*CAP
1 *209:B 5.60652e-05
2 *208:B 2.76596e-05
3 *207:X 0.0002037
4 *34:12 8.37249e-05
5 *34:10 0.0002037
6 *34:10 *83:41 0
7 *209:A *208:B 5.54294e-05
8 *209:A *209:B 8.17116e-05
9 *33:10 *34:10 0
*RES
1 *207:X *34:10 41.2314 
2 *34:10 *34:12 15 
3 *34:12 *208:B 23.6214 
4 *34:12 *209:B 24.4707 
*END

*D_NET *35 0.00220801
*CONN
*I *232:B I *D sky130_fd_sc_hd__and3_1
*I *233:B I *D sky130_fd_sc_hd__nand3_1
*I *234:A2 I *D sky130_fd_sc_hd__a21oi_1
*I *208:X O *D sky130_fd_sc_hd__or2_1
*CAP
1 *232:B 0.000166152
2 *233:B 9.97722e-05
3 *234:A2 0
4 *208:X 0.000314802
5 *35:12 9.97722e-05
6 *35:10 0.000480954
7 *232:B *60:10 7.87877e-05
8 *232:B *63:8 0
9 *233:B *233:C 0.000121895
10 *233:B *57:21 8.38e-05
11 *233:B *58:26 0.000146195
12 *233:B *60:10 0.000199042
13 *35:10 *63:8 0
14 *35:10 *83:41 3.7122e-06
15 *232:A *35:10 9.85378e-05
16 *27:21 *35:10 6.50721e-06
17 *33:10 *35:10 0.000223034
18 *33:20 *35:10 8.50457e-05
*RES
1 *208:X *35:10 43.8207 
2 *35:10 *35:12 15 
3 *35:12 *234:A2 23 
4 *35:12 *233:B 26.9564 
5 *35:10 *232:B 40.7757 
*END

*D_NET *36 0.00202062
*CONN
*I *242:A1 I *D sky130_fd_sc_hd__a311o_1
*I *220:A I *D sky130_fd_sc_hd__and2_1
*I *221:A I *D sky130_fd_sc_hd__xor2_1
*I *209:X O *D sky130_fd_sc_hd__xor2_1
*CAP
1 *242:A1 0
2 *220:A 0
3 *221:A 0.000138377
4 *209:X 0.00033917
5 *36:34 0.000238692
6 *36:21 0.000332859
7 *36:8 0.000571714
8 *221:A *46:19 0.000144158
9 *36:21 *46:19 6.79006e-05
10 *36:34 *242:A2 0.000105938
11 *36:34 *46:19 1.83667e-05
12 *36:34 *47:12 6.34418e-05
13 *36:34 *47:25 0
*RES
1 *209:X *36:8 42.4329 
2 *36:8 *221:A 41.6664 
3 *36:8 *36:21 16.9057 
4 *36:21 *220:A 23 
5 *36:21 *36:34 34.6607 
6 *36:34 *242:A1 23 
*END

*D_NET *37 0.00359074
*CONN
*I *229:B I *D sky130_fd_sc_hd__or2_1
*I *228:B I *D sky130_fd_sc_hd__nand2_1
*I *213:B1 I *D sky130_fd_sc_hd__a21oi_1
*I *210:X O *D sky130_fd_sc_hd__and4_1
*CAP
1 *229:B 0.000169618
2 *228:B 0
3 *213:B1 0
4 *210:X 0
5 *37:21 0.000334701
6 *37:12 0.000566376
7 *37:4 0.000731459
8 *229:B *210:D 0
9 *229:B *55:10 5.50106e-05
10 *229:B *78:8 2.07355e-05
11 *37:12 *197:A 8.26465e-05
12 *37:12 *210:A 0
13 *37:12 *211:C_N 2.1819e-05
14 *37:12 *211:D_N 0.000139982
15 *37:12 *212:A 0.00014196
16 *37:12 *212:B 0.00014196
17 *37:12 *69:46 7.40718e-05
18 *37:12 *69:54 0.000119627
19 *37:12 *78:10 3.56433e-05
20 *37:12 *78:47 2.76611e-06
21 *37:12 *82:58 0.000311823
22 *37:21 *210:D 5.90675e-06
23 *37:21 *78:8 5.41288e-05
24 *228:A *229:B 8.09199e-05
25 *228:A *37:21 0
26 *229:A *229:B 1.24376e-05
27 *32:8 *37:12 0.000487147
*RES
1 *210:X *37:4 23 
2 *37:4 *37:12 44.5621 
3 *37:12 *213:B1 23 
4 *37:4 *37:21 3.37643 
5 *37:21 *228:B 23 
6 *37:21 *229:B 27.3707 
*END

*D_NET *38 0.000354509
*CONN
*I *213:A1 I *D sky130_fd_sc_hd__a21oi_1
*I *211:X O *D sky130_fd_sc_hd__or4bb_1
*CAP
1 *213:A1 6.45386e-05
2 *211:X 6.45386e-05
3 *213:A1 *212:A 8.61131e-05
4 *213:A1 *213:A2 3.91386e-05
5 *213:A1 *40:10 0.00010018
*RES
1 *211:X *213:A1 48.4236 
*END

*D_NET *39 0.000234344
*CONN
*I *213:A2 I *D sky130_fd_sc_hd__a21oi_1
*I *212:Y O *D sky130_fd_sc_hd__nand2_1
*CAP
1 *213:A2 3.59301e-05
2 *212:Y 3.59301e-05
3 *213:A2 *212:A 4.37033e-05
4 *213:A2 *212:B 2.55136e-05
5 *213:A2 *40:10 5.41288e-05
6 *213:A1 *213:A2 3.91386e-05
*RES
1 *212:Y *213:A2 47.595 
*END

*D_NET *40 0.00209208
*CONN
*I *214:B I *D sky130_fd_sc_hd__and2_1
*I *217:B I *D sky130_fd_sc_hd__or2_1
*I *213:Y O *D sky130_fd_sc_hd__a21oi_1
*CAP
1 *214:B 0
2 *217:B 0.000192328
3 *213:Y 0.000491419
4 *40:12 0.000192328
5 *40:10 0.000491419
6 *217:B *219:B1 9.25509e-05
7 *217:B *41:6 2.93747e-05
8 *217:B *44:8 0.000269781
9 *40:10 *212:A 9.24795e-06
10 *40:10 *219:A1 0
11 *40:10 *222:A 0
12 *40:10 *41:14 1.19692e-05
13 *40:10 *69:8 0
14 *213:A1 *40:10 0.00010018
15 *213:A2 *40:10 5.41288e-05
16 *217:A *217:B 0.000118211
17 *23:39 *217:B 3.91386e-05
*RES
1 *213:Y *40:10 45.25 
2 *40:10 *40:12 15 
3 *40:12 *217:B 28.9036 
4 *40:12 *214:B 23 
*END

*D_NET *41 0.00114896
*CONN
*I *219:B1 I *D sky130_fd_sc_hd__a21o_1
*I *218:A_N I *D sky130_fd_sc_hd__nand2b_1
*I *214:X O *D sky130_fd_sc_hd__and2_1
*CAP
1 *219:B1 8.24029e-05
2 *218:A_N 0
3 *214:X 1.80505e-05
4 *41:14 0.000186191
5 *41:6 0.000286644
6 *41:14 *218:B 0.00013041
7 *41:14 *219:A1 1.22803e-05
8 *41:14 *219:A2 5.24393e-05
9 *41:14 *69:8 0
10 *41:14 *71:10 0
11 *217:A *219:B1 0.000191639
12 *217:A *41:6 5.50049e-05
13 *217:B *219:B1 9.25509e-05
14 *217:B *41:6 2.93747e-05
15 *40:10 *41:14 1.19692e-05
*RES
1 *214:X *41:6 23.6214 
2 *41:6 *41:14 34.2879 
3 *41:14 *218:A_N 23 
4 *41:6 *219:B1 25.5479 
*END

*D_NET *42 0.000341251
*CONN
*I *216:C1 I *D sky130_fd_sc_hd__o211a_1
*I *215:X O *D sky130_fd_sc_hd__a21o_1
*CAP
1 *216:C1 4.16843e-05
2 *215:X 4.16843e-05
3 *216:C1 *216:A1 0.000185434
4 *216:B1 *216:C1 7.24484e-05
*RES
1 *215:X *216:C1 48.0507 
*END

*D_NET *43 0.00253459
*CONN
*I *222:A I *D sky130_fd_sc_hd__xnor2_1
*I *219:A1 I *D sky130_fd_sc_hd__a21o_1
*I *216:X O *D sky130_fd_sc_hd__o211a_1
*CAP
1 *222:A 0.000203852
2 *219:A1 0.000120569
3 *216:X 0.000406211
4 *43:8 0.000730632
5 *219:A1 *219:A2 1.14452e-05
6 *219:A1 *45:8 0.000218943
7 *222:A *45:8 0.000194318
8 *222:A *46:8 0
9 *43:8 *69:12 0.000199433
10 *43:8 *69:20 9.02916e-05
11 *26:6 *43:8 0.000346616
12 *40:10 *219:A1 0
13 *40:10 *222:A 0
14 *41:14 *219:A1 1.22803e-05
*RES
1 *216:X *43:8 48.6264 
2 *43:8 *219:A1 40.9621 
3 *43:8 *222:A 42.06 
*END

*D_NET *44 0.00145618
*CONN
*I *219:A2 I *D sky130_fd_sc_hd__a21o_1
*I *218:B I *D sky130_fd_sc_hd__nand2b_1
*I *217:X O *D sky130_fd_sc_hd__or2_1
*CAP
1 *219:A2 2.50745e-05
2 *218:B 0.000158408
3 *217:X 0.000238726
4 *44:8 0.000422209
5 *218:B *45:8 8.88402e-05
6 *219:A2 *45:8 2.35393e-05
7 *217:A *44:8 3.53115e-05
8 *217:B *44:8 0.000269781
9 *219:A1 *219:A2 1.14452e-05
10 *41:14 *218:B 0.00013041
11 *41:14 *219:A2 5.24393e-05
*RES
1 *217:X *44:8 42.9093 
2 *44:8 *218:B 41.5266 
3 *44:8 *219:A2 38.8493 
*END

*D_NET *45 0.00124055
*CONN
*I *222:B I *D sky130_fd_sc_hd__xnor2_1
*I *218:Y O *D sky130_fd_sc_hd__nand2b_1
*CAP
1 *222:B 0
2 *218:Y 0.000298832
3 *45:8 0.000298832
4 *45:8 *46:8 0.000117249
5 *218:B *45:8 8.88402e-05
6 *219:A1 *45:8 0.000218943
7 *219:A2 *45:8 2.35393e-05
8 *222:A *45:8 0.000194318
*RES
1 *218:Y *45:8 45.54 
2 *45:8 *222:B 38 
*END

*D_NET *46 0.00243317
*CONN
*I *242:A2 I *D sky130_fd_sc_hd__a311o_1
*I *220:B I *D sky130_fd_sc_hd__and2_1
*I *221:B I *D sky130_fd_sc_hd__xor2_1
*I *219:X O *D sky130_fd_sc_hd__a21o_1
*CAP
1 *242:A2 0.000171375
2 *220:B 0
3 *221:B 4.24511e-05
4 *219:X 0.000511621
5 *46:19 0.000435709
6 *46:8 0.000818405
7 *242:A2 *47:12 0
8 *46:8 *236:A3 0
9 *46:8 *49:12 0
10 *46:19 *236:A3 0
11 *46:19 *47:25 0
12 *221:A *46:19 0.000144158
13 *222:A *46:8 0
14 *26:10 *46:8 0
15 *36:21 *46:19 6.79006e-05
16 *36:34 *242:A2 0.000105938
17 *36:34 *46:19 1.83667e-05
18 *45:8 *46:8 0.000117249
*RES
1 *219:X *46:8 48.3571 
2 *46:8 *221:B 38.6214 
3 *46:8 *46:19 6.13143 
4 *46:19 *220:B 38 
5 *46:19 *242:A2 41.0243 
*END

*D_NET *47 0.00177568
*CONN
*I *236:B1 I *D sky130_fd_sc_hd__a31o_1
*I *241:A1 I *D sky130_fd_sc_hd__o211a_1
*I *220:X O *D sky130_fd_sc_hd__and2_1
*CAP
1 *236:B1 0
2 *241:A1 0
3 *220:X 0
4 *47:25 0.000367704
5 *47:12 0.000448144
6 *47:4 0.000815847
7 *47:12 *242:C1 2.60152e-05
8 *47:12 *60:16 1.14452e-05
9 *47:25 *236:A3 3.70094e-05
10 *47:25 *48:16 6.07611e-06
11 *47:25 *61:8 0
12 *47:25 *62:8 0
13 *242:A2 *47:12 0
14 *33:33 *47:12 0
15 *36:34 *47:12 6.34418e-05
16 *36:34 *47:25 0
17 *46:19 *47:25 0
*RES
1 *220:X *47:4 23 
2 *47:4 *47:12 36.3386 
3 *47:12 *241:A1 23 
4 *47:4 *47:25 36.0693 
5 *47:25 *236:B1 23 
*END

*D_NET *48 0.000904343
*CONN
*I *224:A I *D sky130_fd_sc_hd__xnor2_1
*I *236:A2 I *D sky130_fd_sc_hd__a31o_1
*I *221:X O *D sky130_fd_sc_hd__xor2_1
*CAP
1 *224:A 3.87695e-05
2 *236:A2 0
3 *221:X 0.000198936
4 *48:16 0.000113288
5 *48:8 0.000350994
6 *48:16 *236:A3 5.44006e-05
7 *48:16 *258:A 0
8 *236:A1 *48:16 0.000141879
9 *47:25 *48:16 6.07611e-06
*RES
1 *221:X *48:8 26.5007 
2 *48:8 *48:16 32.755 
3 *48:16 *236:A2 23 
4 *48:8 *224:A 23.6214 
*END

*D_NET *49 0.00169467
*CONN
*I *245:B I *D sky130_fd_sc_hd__or2_1
*I *236:A3 I *D sky130_fd_sc_hd__a31o_1
*I *223:B I *D sky130_fd_sc_hd__nand2_1
*I *222:Y O *D sky130_fd_sc_hd__xnor2_1
*CAP
1 *245:B 6.23895e-05
2 *236:A3 0.00041368
3 *223:B 0
4 *222:Y 0.000142248
5 *49:12 0.000572163
6 *49:8 0.00036312
7 *236:A1 *236:A3 4.9662e-05
8 *26:19 *236:A3 0
9 *26:19 *49:12 0
10 *46:8 *236:A3 0
11 *46:8 *49:12 0
12 *46:19 *236:A3 0
13 *47:25 *236:A3 3.70094e-05
14 *48:16 *236:A3 5.44006e-05
*RES
1 *222:Y *49:8 25.0714 
2 *49:8 *49:12 17.2579 
3 *49:12 *223:B 38 
4 *49:12 *236:A3 46.1821 
5 *49:8 *245:B 24.0979 
*END

*D_NET *50 0.00125802
*CONN
*I *224:B I *D sky130_fd_sc_hd__xnor2_1
*I *246:A I *D sky130_fd_sc_hd__and2_1
*I *223:Y O *D sky130_fd_sc_hd__nand2_1
*CAP
1 *224:B 0.000223863
2 *246:A 0.000108184
3 *223:Y 0.000192936
4 *50:8 0.000524983
5 *224:B *72:8 0
6 *246:A *72:8 0
7 P[4] *224:B 0
8 *223:A *50:8 5.41288e-05
9 *236:A1 *224:B 7.66188e-05
10 *26:10 *246:A 2.46933e-05
11 *26:19 *224:B 1.69668e-05
12 *26:19 *246:A 3.56433e-05
*RES
1 *223:Y *50:8 40.5271 
2 *50:8 *246:A 40.2579 
3 *50:8 *224:B 42.7643 
*END

*D_NET *51 0.000545582
*CONN
*I *227:B1 I *D sky130_fd_sc_hd__a211o_1
*I *225:Y O *D sky130_fd_sc_hd__a31oi_1
*CAP
1 *227:B1 0
2 *225:Y 0.000169976
3 *51:10 0.000169976
4 *51:10 *200:B 6.17437e-06
5 *51:10 *225:B1 2.93747e-05
6 *51:10 *227:C1 4.21594e-06
7 *51:10 *78:69 8.4047e-05
8 *51:10 *82:15 1.22822e-05
9 *51:10 *83:14 0
10 *21:30 *51:10 6.95357e-05
*RES
1 *225:Y *51:10 41.0036 
2 *51:10 *227:B1 38 
*END

*D_NET *52 0.00141847
*CONN
*I *244:C1 I *D sky130_fd_sc_hd__a211o_1
*I *227:C1 I *D sky130_fd_sc_hd__a211o_1
*I *226:X O *D sky130_fd_sc_hd__and4_1
*CAP
1 *244:C1 0.000417057
2 *227:C1 9.29677e-05
3 *226:X 4.25104e-05
4 *52:8 0.000552535
5 *227:C1 *54:8 0
6 *227:C1 *83:14 0.000101246
7 *244:C1 *239:B1 6.86023e-06
8 *244:C1 *54:8 0
9 *244:C1 *63:8 0
10 *244:C1 *64:8 4.58924e-05
11 *52:8 *79:79 5.50049e-05
12 P[7] *244:C1 0
13 *21:22 *227:C1 0.00010018
14 *51:10 *227:C1 4.21594e-06
*RES
1 *226:X *52:8 38.6214 
2 *52:8 *227:C1 40.2993 
3 *52:8 *244:C1 45.8921 
*END

*D_NET *53 0.00132549
*CONN
*I *239:A1 I *D sky130_fd_sc_hd__o21ai_1
*I *231:A I *D sky130_fd_sc_hd__xnor2_1
*I *227:X O *D sky130_fd_sc_hd__a211o_1
*CAP
1 *239:A1 0.000118572
2 *231:A 0
3 *227:X 0.000300632
4 *53:12 0.000118572
5 *53:10 0.000300632
6 *239:A1 *231:B 9.84794e-05
7 *239:A1 *239:A2 8.34394e-05
8 *239:A1 *57:10 2.93845e-05
9 *53:10 *239:B1 0
10 *53:10 *55:10 1.37349e-05
11 *53:10 *56:8 4.58924e-05
12 *53:10 *79:10 0.000139647
13 *53:10 *79:79 5.3304e-05
14 *53:10 *83:14 2.32004e-05
*RES
1 *227:X *53:10 43.8207 
2 *53:10 *53:12 15 
3 *53:12 *231:A 23 
4 *53:12 *239:A1 25.5271 
*END

*D_NET *54 0.00199015
*CONN
*I *239:B1 I *D sky130_fd_sc_hd__o21ai_1
*I *230:A I *D sky130_fd_sc_hd__nand2_1
*I *228:Y O *D sky130_fd_sc_hd__nand2_1
*CAP
1 *239:B1 0.000279011
2 *230:A 0
3 *228:Y 0.000346306
4 *54:8 0.000625318
5 *239:B1 *56:8 0.000166513
6 *239:B1 *57:10 3.22879e-05
7 *54:8 *55:10 0.000289696
8 *54:8 *78:47 4.9844e-05
9 *227:C1 *54:8 0
10 *244:C1 *239:B1 6.86023e-06
11 *244:C1 *54:8 0
12 *21:30 *54:8 0.000194318
13 *53:10 *239:B1 0
*RES
1 *228:Y *54:8 45.8921 
2 *54:8 *230:A 38 
3 *54:8 *239:B1 43.655 
*END

*D_NET *55 0.00173368
*CONN
*I *230:B I *D sky130_fd_sc_hd__nand2_1
*I *229:X O *D sky130_fd_sc_hd__or2_1
*CAP
1 *230:B 0
2 *229:X 0.000388614
3 *55:10 0.000388614
4 *55:10 *78:8 1.02949e-05
5 *55:10 *79:10 0.000164282
6 *55:10 *79:12 0.000247678
7 *55:10 *79:18 0.000164282
8 *229:A *55:10 1.14762e-05
9 *229:B *55:10 5.50106e-05
10 *53:10 *55:10 1.37349e-05
11 *54:8 *55:10 0.000289696
*RES
1 *229:X *55:10 47.9429 
2 *55:10 *230:B 38 
*END

*D_NET *56 0.000807991
*CONN
*I *239:A2 I *D sky130_fd_sc_hd__o21ai_1
*I *231:B I *D sky130_fd_sc_hd__xnor2_1
*I *230:Y O *D sky130_fd_sc_hd__nand2_1
*CAP
1 *239:A2 7.42009e-05
2 *231:B 4.56652e-05
3 *230:Y 7.81395e-05