*SPEF "ieee 1481-1999"
*DESIGN "SARSA_WInd_e8"
*DATE "11:23:44 Wednesday September 17, 2025"
*VENDOR "The OpenROAD Project"
*PROGRAM "OpenROAD"
*VERSION "edf00dff99f6c40d67a30c0e22a8191c5d2ed9d6"
*DESIGN_FLOW "NAME_SCOPE LOCAL" "PIN_CAP NONE"
*DIVIDER /
*DELIMITER :
*BUS_DELIMITER []
*T_UNIT 1 NS
*C_UNIT 1 PF
*R_UNIT 1 OHM
*L_UNIT 1 HENRY

*NAME_MAP
*1 A[0]
*2 A[1]
*3 B[0]
*4 B[1]
*5 P[0]
*6 P[1]
*7 P[2]
*8 P[3]
*11 _0_
*12 _1_
*13 _2_
*14 net1
*15 net2
*16 net3
*17 net4
*18 net5
*19 net6
*20 net7
*21 net8
*22 FILLER_0_15
*23 FILLER_0_27
*24 FILLER_0_29
*25 FILLER_0_3
*26 FILLER_0_37
*27 FILLER_0_42
*28 FILLER_0_54
*29 FILLER_0_57
*30 FILLER_0_69
*31 FILLER_1_15
*32 FILLER_1_27
*33 FILLER_1_3
*34 FILLER_1_39
*35 FILLER_1_51
*36 FILLER_1_55
*37 FILLER_1_57
*38 FILLER_1_69
*39 FILLER_2_15
*40 FILLER_2_27
*41 FILLER_2_29
*42 FILLER_2_3
*43 FILLER_2_41
*44 FILLER_2_53
*45 FILLER_2_65
*46 FILLER_2_77
*47 FILLER_3_15
*48 FILLER_3_27
*49 FILLER_3_3
*50 FILLER_3_39
*51 FILLER_3_51
*52 FILLER_3_55
*53 FILLER_3_57
*54 FILLER_3_69
*55 FILLER_4_18
*56 FILLER_4_26
*57 FILLER_4_29
*58 FILLER_4_35
*59 FILLER_4_43
*60 FILLER_4_57
*61 FILLER_4_6
*62 FILLER_4_69
*63 FILLER_5_18
*64 FILLER_5_26
*65 FILLER_5_33
*66 FILLER_5_45
*67 FILLER_5_53
*68 FILLER_5_57
*69 FILLER_5_6
*70 FILLER_5_69
*71 FILLER_6_15
*72 FILLER_6_27
*73 FILLER_6_29
*74 FILLER_6_3
*75 FILLER_6_41
*76 FILLER_6_53
*77 FILLER_6_65
*78 FILLER_6_77
*79 FILLER_7_15
*80 FILLER_7_27
*81 FILLER_7_3
*82 FILLER_7_35
*83 FILLER_7_41
*84 FILLER_7_53
*85 FILLER_7_57
*86 FILLER_7_69
*87 FILLER_8_15
*88 FILLER_8_27
*89 FILLER_8_29
*90 FILLER_8_3
*91 FILLER_8_41
*92 FILLER_8_52
*93 FILLER_8_64
*94 FILLER_8_76
*95 FILLER_8_80
*96 FILLER_9_15
*97 FILLER_9_27
*98 FILLER_9_29
*99 FILLER_9_3
*100 FILLER_9_37
*101 FILLER_9_42
*102 FILLER_9_48
*103 FILLER_9_55
*104 FILLER_9_57
*105 FILLER_9_69
*106 PHY_EDGE_ROW_0_Left_10
*107 PHY_EDGE_ROW_0_Right_0
*108 PHY_EDGE_ROW_1_Left_11
*109 PHY_EDGE_ROW_1_Right_1
*110 PHY_EDGE_ROW_2_Left_12
*111 PHY_EDGE_ROW_2_Right_2
*112 PHY_EDGE_ROW_3_Left_13
*113 PHY_EDGE_ROW_3_Right_3
*114 PHY_EDGE_ROW_4_Left_14
*115 PHY_EDGE_ROW_4_Right_4
*116 PHY_EDGE_ROW_5_Left_15
*117 PHY_EDGE_ROW_5_Right_5
*118 PHY_EDGE_ROW_6_Left_16
*119 PHY_EDGE_ROW_6_Right_6
*120 PHY_EDGE_ROW_7_Left_17
*121 PHY_EDGE_ROW_7_Right_7
*122 PHY_EDGE_ROW_8_Left_18
*123 PHY_EDGE_ROW_8_Right_8
*124 PHY_EDGE_ROW_9_Left_19
*125 PHY_EDGE_ROW_9_Right_9
*126 TAP_TAPCELL_ROW_0_20
*127 TAP_TAPCELL_ROW_0_21
*128 TAP_TAPCELL_ROW_1_22
*129 TAP_TAPCELL_ROW_2_23
*130 TAP_TAPCELL_ROW_3_24
*131 TAP_TAPCELL_ROW_4_25
*132 TAP_TAPCELL_ROW_5_26
*133 TAP_TAPCELL_ROW_6_27
*134 TAP_TAPCELL_ROW_7_28
*135 TAP_TAPCELL_ROW_8_29
*136 TAP_TAPCELL_ROW_9_30
*137 TAP_TAPCELL_ROW_9_31
*138 _3_
*139 _4_
*140 _5_
*141 _6_
*142 _7_
*143 _8_
*144 _9_
*145 input1
*146 input2
*147 input3
*148 input4
*149 output5
*150 output6
*151 output7
*152 output8

*PORTS
A[0] I
A[1] I
B[0] I
B[1] I
P[0] O
P[1] O
P[2] O
P[3] O

*D_NET *1 0.000641155
*CONN
*P A[0] I
*I *145:A I *D sky130_fd_sc_hd__clkbuf_1
*CAP
1 A[0] 0.000305759
2 *145:A 0.000305759
3 *145:A *147:A 2.96366e-05
*RES
1 A[0] *145:A 7.8543 
*END

*D_NET *2 0.00095267
*CONN
*P A[1] I
*I *146:A I *D sky130_fd_sc_hd__clkbuf_1
*CAP
1 A[1] 0.000476335
2 *146:A 0.000476335
3 *146:A *148:A 0
*RES
1 A[1] *146:A 12.06 
*END

*D_NET *3 0.000620504
*CONN
*P B[0] I
*I *147:A I *D sky130_fd_sc_hd__clkbuf_1
*CAP
1 B[0] 0.000295434
2 *147:A 0.000295434
3 *145:A *147:A 2.96366e-05
*RES
1 B[0] *147:A 7.5993 
*END

*D_NET *4 0.000879585
*CONN
*P B[1] I
*I *148:A I *D sky130_fd_sc_hd__clkbuf_1
*CAP
1 B[1] 0.000439792
2 *148:A 0.000439792
3 *148:A P[1] 0
4 *146:A *148:A 0
*RES
1 B[1] *148:A 11.37 
*END

*D_NET *5 0.000817102
*CONN
*P P[0] O
*I *149:X O *D sky130_fd_sc_hd__buf_2
*CAP
1 P[0] 0.000408551
2 *149:X 0.000408551
*RES
1 *149:X P[0] 10.185 
*END

*D_NET *6 0.00085605
*CONN
*P P[1] O
*I *150:X O *D sky130_fd_sc_hd__buf_2
*CAP
1 P[1] 0.000428025
2 *150:X 0.000428025
3 *148:A P[1] 0
*RES
1 *150:X P[1] 11.205 
*END

*D_NET *7 0.000584515
*CONN
*P P[2] O
*I *151:X O *D sky130_fd_sc_hd__buf_2
*CAP
1 P[2] 0.000245984
2 *151:X 0.000245984
3 P[2] P[3] 9.25475e-05
*RES
1 *151:X P[2] 5.92503 
*END

*D_NET *8 0.000527701
*CONN
*P P[3] O
*I *152:X O *D sky130_fd_sc_hd__buf_2
*CAP
1 P[3] 0.000217577
2 *152:X 0.000217577
3 P[2] P[3] 9.25475e-05
*RES
1 *152:X P[3] 5.41503 
*END

*D_NET *11 0.00240866
*CONN
*I *143:A1 I *D sky130_fd_sc_hd__a21oi_1
*I *140:B I *D sky130_fd_sc_hd__and2_1
*I *144:B I *D sky130_fd_sc_hd__and2b_1
*I *139:X O *D sky130_fd_sc_hd__and2_1
*CAP
1 *143:A1 0.00016683
2 *140:B 0.00011588
3 *144:B 0
4 *139:X 0.000195305
5 *11:16 0.000521403
6 *11:10 0.000767658
7 *140:B *140:A 1.60203e-05
8 *140:B *151:A 0.000124895
9 *143:A1 *143:B1 0.000310789
10 *11:10 *139:B 8.65905e-05
11 *11:10 *143:B1 5.02217e-05
12 *11:16 *140:A 5.30673e-05
13 *11:16 *143:A2 0
14 *11:16 *152:A 0
*RES
1 *139:X *11:10 6.465 
2 *11:10 *11:16 8.765 
3 *11:16 *144:B 1.6 
4 *11:16 *140:B 7.7 
5 *11:10 *143:A1 7.155 
*END

*D_NET *12 0.000881688
*CONN
*I *143:B1 I *D sky130_fd_sc_hd__a21oi_1
*I *141:Y O *D sky130_fd_sc_hd__nor2_1
*CAP
1 *143:B1 0.000260338
2 *141:Y 0.000260338
3 *143:A1 *143:B1 0.000310789
4 *11:10 *143:B1 5.02217e-05
*RES
1 *141:Y *143:B1 11.88 
*END

*D_NET *13 0.000941364
*CONN
*I *143:A2 I *D sky130_fd_sc_hd__a21oi_1
*I *142:Y O *D sky130_fd_sc_hd__nand2b_1
*CAP
1 *143:A2 0.000457999
2 *142:Y 0.000457999
3 *143:A2 *150:A 2.53657e-05
4 *11:16 *143:A2 0
*RES
1 *142:Y *143:A2 13.605 
*END

*D_NET *14 0.00180567
*CONN
*I *138:B I *D sky130_fd_sc_hd__and2_1
*I *142:B I *D sky130_fd_sc_hd__nand2b_1
*I *145:X O *D sky130_fd_sc_hd__clkbuf_1
*CAP
1 *138:B 6.27199e-05
2 *142:B 0.000116422
3 *145:X 0.000582353
4 *14:8 0.000761495
5 *138:B *138:A 4.82919e-05
6 *142:B *138:A 0.000186099
7 *14:8 *138:A 4.82863e-05
*RES
1 *145:X *14:8 10.6 
2 *14:8 *142:B 8.10875 
3 *14:8 *138:B 2.74 
*END

*D_NET *15 0.00066637
*CONN
*I *141:B I *D sky130_fd_sc_hd__nor2_1
*I *139:B I *D sky130_fd_sc_hd__and2_1
*I *146:X O *D sky130_fd_sc_hd__clkbuf_1
*CAP
1 *141:B 0
2 *139:B 0.000126074
3 *146:X 0.000134124
4 *15:12 0.000260199
5 *139:B *141:A 5.93828e-05
6 *15:12 *17:12 0
7 *11:10 *139:B 8.65905e-05
*RES
1 *146:X *15:12 7.685 
2 *15:12 *139:B 4.15 
3 *15:12 *141:B 1.6 
*END

*D_NET *16 0.00168959
*CONN
*I *142:A_N I *D sky130_fd_sc_hd__nand2b_1
*I *138:A I *D sky130_fd_sc_hd__and2_1
*I *147:X O *D sky130_fd_sc_hd__clkbuf_1
*CAP
1 *142:A_N 0
2 *138:A 0.000130628
3 *147:X 0.00057283
4 *16:8 0.000703458
5 *138:B *138:A 4.82919e-05
6 *142:B *138:A 0.000186099
7 *14:8 *138:A 4.82863e-05
*RES
1 *147:X *16:8 10.255 
2 *16:8 *138:A 8.54 
3 *16:8 *142:A_N 1.6 
*END

*D_NET *17 0.000402002
*CONN
*I *139:A I *D sky130_fd_sc_hd__and2_1
*I *141:A I *D sky130_fd_sc_hd__nor2_1
*I *148:X O *D sky130_fd_sc_hd__clkbuf_1
*CAP
1 *139:A 0
2 *141:A 3.43992e-05
3 *148:X 0.00013691
4 *17:12 0.000171309
5 *139:B *141:A 5.93828e-05
6 *15:12 *17:12 0
*RES
1 *148:X *17:12 7.43 
2 *17:12 *141:A 2.41 
3 *17:12 *139:A 1.6 
*END

*D_NET *18 0.00223862
*CONN
*I *140:A I *D sky130_fd_sc_hd__and2_1
*I *144:A_N I *D sky130_fd_sc_hd__and2b_1
*I *149:A I *D sky130_fd_sc_hd__buf_2
*I *138:X O *D sky130_fd_sc_hd__and2_1
*CAP
1 *140:A 0.000128331
2 *144:A_N 0
3 *149:A 0.000622968
4 *138:X 0.000308487
5 *18:6 0.00105979
6 *140:A *151:A 4.99619e-05
7 *140:B *140:A 1.60203e-05
8 *11:16 *140:A 5.30673e-05
*RES
1 *138:X *18:6 5.845 
2 *18:6 *149:A 15.44 
3 *18:6 *144:A_N 1.6 
4 *18:6 *140:A 4.135 
*END

*D_NET *19 0.000667325
*CONN
*I *150:A I *D sky130_fd_sc_hd__buf_2
*I *143:Y O *D sky130_fd_sc_hd__a21oi_1
*CAP
1 *150:A 0.00032098
2 *143:Y 0.00032098
3 *143:A2 *150:A 2.53657e-05
*RES
1 *143:Y *150:A 12.345 
*END

*D_NET *20 0.00134159
*CONN
*I *151:A I *D sky130_fd_sc_hd__buf_2
*I *144:X O *D sky130_fd_sc_hd__and2b_1
*CAP
1 *151:A 0.000583367
2 *144:X 0.000583367
3 *140:A *151:A 4.99619e-05
4 *140:B *151:A 0.000124895
*RES
1 *144:X *151:A 12.74 
*END

*D_NET *21 0.00118459
*CONN
*I *152:A I *D sky130_fd_sc_hd__buf_2
*I *140:X O *D sky130_fd_sc_hd__and2_1
*CAP
1 *152:A 0.000592296
2 *140:X 0.000592296
3 *11:16 *152:A 0
*RES
1 *140:X *152:A 16.185 
*END
