*SPEF "ieee 1481-1999"
*DESIGN "mult4_SARSA_RUIDO_e9_SARSA_RUIDO_e9_SarsaNada_e6_SARSA_RUIDO_e9"
*DATE "14:27:34 Tuesday September 16, 2025"
*VENDOR "The OpenROAD Project"
*PROGRAM "OpenROAD"
*VERSION "edf00dff99f6c40d67a30c0e22a8191c5d2ed9d6"
*DESIGN_FLOW "NAME_SCOPE LOCAL" "PIN_CAP NONE"
*DIVIDER /
*DELIMITER :
*BUS_DELIMITER []
*T_UNIT 1 NS
*C_UNIT 1 PF
*R_UNIT 1 OHM
*L_UNIT 1 HENRY

*NAME_MAP
*1 A[0]
*2 A[1]
*3 A[2]
*4 A[3]
*5 B[0]
*6 B[1]
*7 B[2]
*8 B[3]
*9 P[0]
*10 P[1]
*11 P[2]
*12 P[3]
*13 P[4]
*14 P[5]
*15 P[6]
*16 P[7]
*19 _00_
*20 _01_
*21 _02_
*22 _03_
*23 _04_
*24 _05_
*25 _06_
*26 _07_
*27 _08_
*28 _09_
*29 _10_
*30 _11_
*31 _12_
*32 _13_
*33 _14_
*34 _15_
*35 _16_
*36 _17_
*37 _18_
*38 _19_
*39 _20_
*40 _21_
*41 _22_
*42 _23_
*43 _24_
*44 _25_
*45 _26_
*46 _27_
*47 _28_
*48 _29_
*49 _30_
*50 _31_
*51 mul_ll\.pp1
*52 mul_ll\.pp2
*53 net1
*54 net10
*55 net11
*56 net12
*57 net13
*58 net14
*59 net15
*60 net16
*61 net2
*62 net3
*63 net4
*64 net5
*65 net6
*66 net7
*67 net8
*68 net9
*69 FILLER_0_15
*70 FILLER_0_3
*71 FILLER_0_36
*72 FILLER_0_41
*73 FILLER_0_55
*74 FILLER_0_67
*75 FILLER_0_79
*76 FILLER_1_15
*77 FILLER_1_3
*78 FILLER_1_38
*79 FILLER_1_48
*80 FILLER_1_74
*81 FILLER_2_21
*82 FILLER_2_27
*83 FILLER_2_35
*84 FILLER_2_43
*85 FILLER_2_47
*86 FILLER_2_68
*87 FILLER_2_7
*88 FILLER_2_76
*89 FILLER_3_11
*90 FILLER_3_24
*91 FILLER_3_29
*92 FILLER_3_3
*93 FILLER_3_38
*94 FILLER_3_50
*95 FILLER_3_57
*96 FILLER_3_70
*97 FILLER_3_78
*98 FILLER_4_13
*99 FILLER_4_19
*100 FILLER_4_26
*101 FILLER_4_34
*102 FILLER_4_46
*103 FILLER_4_51
*104 FILLER_4_61
*105 FILLER_4_7
*106 FILLER_4_73
*107 FILLER_5_13
*108 FILLER_5_25
*109 FILLER_5_37
*110 FILLER_5_44
*111 FILLER_5_55
*112 FILLER_5_62
*113 FILLER_5_74
*114 FILLER_6_11
*115 FILLER_6_20
*116 FILLER_6_29
*117 FILLER_6_3
*118 FILLER_6_45
*119 FILLER_6_57
*120 FILLER_6_65
*121 FILLER_6_77
*122 FILLER_7_15
*123 FILLER_7_27
*124 FILLER_7_39
*125 FILLER_7_51
*126 FILLER_7_55
*127 FILLER_7_57
*128 FILLER_7_61
*129 FILLER_7_7
*130 FILLER_7_76
*131 FILLER_8_15
*132 FILLER_8_27
*133 FILLER_8_29
*134 FILLER_8_3
*135 FILLER_8_41
*136 FILLER_8_53
*137 FILLER_8_61
*138 FILLER_8_70
*139 FILLER_8_78
*140 FILLER_9_19
*141 FILLER_9_27
*142 FILLER_9_29
*143 FILLER_9_41
*144 FILLER_9_53
*145 FILLER_9_57
*146 FILLER_9_69
*147 FILLER_9_7
*148 PHY_EDGE_ROW_0_Left_10
*149 PHY_EDGE_ROW_0_Right_0
*150 PHY_EDGE_ROW_1_Left_11
*151 PHY_EDGE_ROW_1_Right_1
*152 PHY_EDGE_ROW_2_Left_12
*153 PHY_EDGE_ROW_2_Right_2
*154 PHY_EDGE_ROW_3_Left_13
*155 PHY_EDGE_ROW_3_Right_3
*156 PHY_EDGE_ROW_4_Left_14
*157 PHY_EDGE_ROW_4_Right_4
*158 PHY_EDGE_ROW_5_Left_15
*159 PHY_EDGE_ROW_5_Right_5
*160 PHY_EDGE_ROW_6_Left_16
*161 PHY_EDGE_ROW_6_Right_6
*162 PHY_EDGE_ROW_7_Left_17
*163 PHY_EDGE_ROW_7_Right_7
*164 PHY_EDGE_ROW_8_Left_18
*165 PHY_EDGE_ROW_8_Right_8
*166 PHY_EDGE_ROW_9_Left_19
*167 PHY_EDGE_ROW_9_Right_9
*168 TAP_TAPCELL_ROW_0_20
*169 TAP_TAPCELL_ROW_0_21
*170 TAP_TAPCELL_ROW_1_22
*171 TAP_TAPCELL_ROW_2_23
*172 TAP_TAPCELL_ROW_3_24
*173 TAP_TAPCELL_ROW_4_25
*174 TAP_TAPCELL_ROW_5_26
*175 TAP_TAPCELL_ROW_6_27
*176 TAP_TAPCELL_ROW_7_28
*177 TAP_TAPCELL_ROW_8_29
*178 TAP_TAPCELL_ROW_9_30
*179 TAP_TAPCELL_ROW_9_31
*180 _32_
*181 _33_
*182 _34_
*183 _35_
*184 _36_
*185 _37_
*186 _38_
*187 _39_
*188 _40_
*189 _41_
*190 _42_
*191 _43_
*192 _44_
*193 _45_
*194 _46_
*195 _47_
*196 _48_
*197 _49_
*198 _50_
*199 _51_
*200 _52_
*201 _53_
*202 _54_
*203 _55_
*204 _56_
*205 _57_
*206 _58_
*207 _59_
*208 _60_
*209 _61_
*210 _62_
*211 _63_
*212 _64_
*213 _65_
*214 _66_
*215 _67_
*216 _68_
*217 _69_
*218 _70_
*219 _71_
*220 _72_
*221 _73_
*222 input1
*223 input2
*224 input3
*225 input4
*226 input5
*227 input6
*228 input7
*229 input8
*230 output10
*231 output11
*232 output12
*233 output13
*234 output14
*235 output15
*236 output16
*237 output9

*PORTS
A[0] I
A[1] I
A[2] I
A[3] I
B[0] I
B[1] I
B[2] I
B[3] I
P[0] O
P[1] O
P[2] O
P[3] O
P[4] O
P[5] O
P[6] O
P[7] O

*D_NET *1 0.00105972
*CONN
*P A[0] I
*I *222:A I *D sky130_fd_sc_hd__dlymetal6s2s_1
*CAP
1 A[0] 0.000458525
2 *222:A 0.000458525
3 *222:A *182:B 0.000142669
4 *222:A *226:A 0
*RES
1 A[0] *222:A 12.075 
*END

*D_NET *2 0.000841573
*CONN
*P A[1] I
*I *223:A I *D sky130_fd_sc_hd__buf_1
*CAP
1 A[1] 0.000370567
2 *223:A 0.000370567
3 *223:A *183:A 2.49909e-05
4 *223:A *183:B 7.54478e-05
5 *223:A *183:D 0
6 *223:A *226:A 0
7 *223:A *228:A 0
*RES
1 A[1] *223:A 10.35 
*END

*D_NET *3 0.000592413
*CONN
*P A[2] I
*I *224:A I *D sky130_fd_sc_hd__dlymetal6s2s_1
*CAP
1 A[2] 0.000281388
2 *224:A 0.000281388
3 *224:A P[7] 0
4 *224:A *225:A 2.96366e-05
5 *224:A *62:12 0
*RES
1 A[2] *224:A 7.3443 
*END

*D_NET *4 0.000686959
*CONN
*P A[3] I
*I *225:A I *D sky130_fd_sc_hd__clkbuf_2
*CAP
1 A[3] 0.000315161
2 *225:A 0.000315161
3 *225:A *227:A 2.69997e-05
4 *225:A *62:12 0
5 *224:A *225:A 2.96366e-05
*RES
1 A[3] *225:A 7.9443 
*END

*D_NET *5 0.000774625
*CONN
*P B[0] I
*I *226:A I *D sky130_fd_sc_hd__dlymetal6s2s_1
*CAP
1 B[0] 0.000387313
2 *226:A 0.000387313
3 *226:A *61:10 0
4 *222:A *226:A 0
5 *223:A *226:A 0
*RES
1 B[0] *226:A 10.455 
*END

*D_NET *6 0.000618301
*CONN
*P B[1] I
*I *227:A I *D sky130_fd_sc_hd__clkbuf_2
*CAP
1 B[1] 0.000295651
2 *227:A 0.000295651
3 *225:A *227:A 2.69997e-05
*RES
1 B[1] *227:A 7.4343 
*END

*D_NET *7 0.0013013
*CONN
*P B[2] I
*I *228:A I *D sky130_fd_sc_hd__buf_1
*CAP
1 B[2] 0.000527196
2 *228:A 0.000527196
3 *228:A P[2] 8.65961e-05
4 *228:A *231:A 4.99619e-05
5 *228:A *61:24 5.05437e-05
6 *228:A *66:8 5.98073e-05
7 *223:A *228:A 0
*RES
1 B[2] *228:A 13.215 
*END

*D_NET *8 0.000611975
*CONN
*P B[3] I
*I *229:A I *D sky130_fd_sc_hd__clkbuf_2
*CAP
1 B[3] 0.000259714
2 *229:A 0.000259714
3 *229:A P[3] 9.25475e-05
4 *229:A P[4] 0
*RES
1 B[3] *229:A 6.18003 
*END

*D_NET *9 0.000494798
*CONN
*P P[0] O
*I *237:X O *D sky130_fd_sc_hd__buf_2
*CAP
1 P[0] 0.000158806
2 *237:X 0.000158806
3 P[0] P[1] 8.4638e-05
4 P[0] P[3] 9.25475e-05
5 P[0] *237:A 0
*RES
1 *237:X P[0] 5.16003 
*END

*D_NET *10 0.000471537
*CONN
*P P[1] O
*I *230:X O *D sky130_fd_sc_hd__buf_2
*CAP
1 P[1] 0.00019345
2 *230:X 0.00019345
3 P[0] P[1] 8.4638e-05
*RES
1 *230:X P[1] 4.90503 
*END

*D_NET *11 0.000915096
*CONN
*P P[2] O
*I *231:X O *D sky130_fd_sc_hd__buf_2
*CAP
1 P[2] 0.00041425
2 *231:X 0.00041425
3 *228:A P[2] 8.65961e-05
*RES
1 *231:X P[2] 10.74 
*END

*D_NET *12 0.000605223
*CONN
*P P[3] O
*I *232:X O *D sky130_fd_sc_hd__buf_2
*CAP
1 P[3] 0.000190734
2 *232:X 0.000190734
3 P[3] *232:A 3.86607e-05
4 P[0] P[3] 9.25475e-05
5 *229:A P[3] 9.25475e-05
*RES
1 *232:X P[3] 5.92503 
*END

*D_NET *13 0.000451999
*CONN
*P P[4] O
*I *233:X O *D sky130_fd_sc_hd__buf_2
*CAP
1 P[4] 0.000179726
2 *233:X 0.000179726
3 P[4] P[5] 9.25475e-05
4 *229:A P[4] 0
*RES
1 *233:X P[4] 4.90503 
*END

*D_NET *14 0.000582239
*CONN
*P P[5] O
*I *234:X O *D sky130_fd_sc_hd__buf_2
*CAP
1 P[5] 0.000244846
2 *234:X 0.000244846
3 P[5] *234:A 0
4 P[4] P[5] 9.25475e-05
*RES
1 *234:X P[5] 5.92503 
*END

*D_NET *15 0.000583632
*CONN
*P P[6] O
*I *235:X O *D sky130_fd_sc_hd__buf_2
*CAP
1 P[6] 0.000280571
2 *235:X 0.000280571
3 P[6] P[7] 2.24901e-05
4 P[6] *235:A 0
*RES
1 *235:X P[6] 5.92503 
*END

*D_NET *16 0.000664348
*CONN
*P P[7] O
*I *236:X O *D sky130_fd_sc_hd__buf_2
*CAP
1 P[7] 0.000320929
2 *236:X 0.000320929
3 P[6] P[7] 2.24901e-05
4 *224:A P[7] 0
*RES
1 *236:X P[7] 7.1793 
*END

*D_NET *19 0.000800446
*CONN
*I *187:B2 I *D sky130_fd_sc_hd__a2bb2o_1
*I *180:Y O *D sky130_fd_sc_hd__inv_2
*CAP
1 *187:B2 0.000106122
2 *180:Y 0.000106122
3 *187:B2 *181:A 5.13714e-05
4 *187:B2 *184:B 7.50252e-05
5 *187:B2 *184:D 0.000155826
6 *187:B2 *185:B2 8.41307e-05
7 *187:B2 *21:10 8.51879e-05
8 *187:B2 *53:32 7.26348e-05
9 *187:B2 *64:16 3.93101e-05
10 *187:B2 *65:50 2.47149e-05
*RES
1 *180:Y *187:B2 6.755 
*END

*D_NET *20 0.000873846
*CONN
*I *187:A1_N I *D sky130_fd_sc_hd__a2bb2o_1
*I *186:B I *D sky130_fd_sc_hd__or4b_1
*I *183:X O *D sky130_fd_sc_hd__and4_1
*CAP
1 *187:A1_N 0.000133961
2 *186:B 0.000100566
3 *183:X 0
4 *20:4 0.000234528
5 *186:B *231:A 0
6 *186:B *61:24 7.23602e-05
7 *186:B *66:8 8.57024e-05
8 *187:A1_N *184:D 5.83121e-06
9 *187:A1_N *188:B 5.83121e-06
10 *187:A1_N *61:24 6.28843e-05
11 *187:A1_N *64:28 4.80285e-05
12 *187:A1_N *66:8 3.83041e-05
13 *187:A1_N *66:23 8.58483e-05
*RES
1 *183:X *20:4 1.6 
2 *20:4 *186:B 7.265 
3 *20:4 *187:A1_N 8.225 
*END

*D_NET *21 0.00157822
*CONN
*I *217:B1 I *D sky130_fd_sc_hd__o211ai_1
*I *202:A1 I *D sky130_fd_sc_hd__a211o_1
*I *184:Y O *D sky130_fd_sc_hd__nand4_1
*CAP
1 *217:B1 5.05267e-05
2 *202:A1 7.70612e-05
3 *184:Y 0.000347421
4 *21:10 0.000475008
5 *202:A1 *207:S 2.25119e-05
6 *202:A1 *217:A1 0
7 *202:A1 *217:A2 1.01661e-05
8 *202:A1 *217:C1 3.90266e-05
9 *202:A1 *218:B 0.000112679
10 *217:B1 *217:A2 5.4155e-06
11 *217:B1 *217:C1 3.83041e-05
12 *217:B1 *221:A 2.30292e-05
13 *217:B1 *53:14 0
14 *21:10 *181:A 1.12578e-05
15 *21:10 *217:A2 0
16 *21:10 *217:C1 0.0001249
17 *21:10 *53:14 1.30557e-05
18 *21:10 *53:22 0.000142669
19 *187:B2 *21:10 8.51879e-05
*RES
1 *184:Y *21:10 6.91 
2 *21:10 *202:A1 7.49 
3 *21:10 *217:B1 2.755 
*END

*D_NET *22 0.00145123
*CONN
*I *187:A2_N I *D sky130_fd_sc_hd__a2bb2o_1
*I *186:C I *D sky130_fd_sc_hd__or4b_1
*I *185:Y O *D sky130_fd_sc_hd__a22oi_1
*CAP
1 *187:A2_N 7.49823e-05
2 *186:C 0.000143049
3 *185:Y 0
4 *22:4 0.000218031
5 *186:C *185:A2 7.16075e-05
6 *186:C *186:A 6.28765e-05
7 *186:C *190:A 1.1561e-05
8 *186:C *28:20 0.000271308
9 *186:C *61:24 9.97548e-05
10 *186:C *63:36 4.13171e-05
11 *186:C *64:38 0
12 *186:C *65:16 6.72291e-05
13 *186:C *65:25 8.40213e-05
14 *187:A2_N *185:B2 9.16019e-05
15 *187:A2_N *189:A 4.99524e-05
16 *187:A2_N *65:33 2.18822e-05
17 *187:A2_N *66:23 2.97746e-05
18 *187:A2_N *66:46 0.000112284
*RES
1 *185:Y *22:4 1.6 
2 *22:4 *186:C 10.52 
3 *22:4 *187:A2_N 7.745 
*END

*D_NET *23 0.00485772
*CONN
*I *202:A2 I *D sky130_fd_sc_hd__a211o_1
*I *217:C1 I *D sky130_fd_sc_hd__o211ai_1
*I *188:A I *D sky130_fd_sc_hd__and2_1
*I *186:X O *D sky130_fd_sc_hd__or4b_1
*CAP
1 *202:A2 4.0513e-05
2 *217:C1 0.000175419
3 *188:A 0.000283955
4 *186:X 0
5 *23:31 0.00119453
6 *23:4 0.00126255
7 *188:A *188:B 0.00012657
8 *188:A *64:38 1.34594e-05
9 *202:A2 *200:D 8.40269e-05
10 *217:C1 *207:S 4.76263e-05
11 *217:C1 *221:A 0.00012657
12 *217:C1 *28:32 3.82741e-05
13 *217:C1 *53:14 2.30292e-05
14 *217:C1 *53:22 0
15 *23:31 *186:A 3.67779e-05
16 *23:31 *191:B 0
17 *23:31 *201:A1 0.000139635
18 *23:31 *201:A2 8.53113e-06
19 *23:31 *207:S 4.14953e-05
20 *23:31 *28:20 0.000631414
21 *23:31 *28:32 4.94128e-05
22 *23:31 *37:14 0
23 *23:31 *53:30 0.000272485
24 *23:31 *63:36 5.92191e-05
25 *202:A1 *217:C1 3.90266e-05
26 *217:B1 *217:C1 3.83041e-05
27 *21:10 *217:C1 0.0001249
*RES
1 *186:X *23:4 1.6 
2 *23:4 *188:A 6.22 
3 *23:4 *23:31 20.37 
4 *23:31 *217:C1 7.23 
5 *23:31 *202:A2 4.395 
*END

*D_NET *24 0.000789401
*CONN
*I *188:B I *D sky130_fd_sc_hd__and2_1
*I *187:X O *D sky130_fd_sc_hd__a2bb2o_1
*CAP
1 *188:B 0.000221834
2 *187:X 0.000221834
3 *188:B *184:D 0
4 *188:B *64:28 1.44422e-05
5 *188:B *64:38 0.000198889
6 *187:A1_N *188:B 5.83121e-06
7 *188:A *188:B 0.00012657
*RES
1 *187:X *188:B 7.82 
*END

*D_NET *25 0.00188488
*CONN
*I *208:A1 I *D sky130_fd_sc_hd__a21boi_1
*I *196:A I *D sky130_fd_sc_hd__and3_1
*I *197:B1 I *D sky130_fd_sc_hd__a21oi_1
*I *189:X O *D sky130_fd_sc_hd__and2_1
*CAP
1 *208:A1 0
2 *196:A 1.65021e-05
3 *197:B1 8.29169e-05
4 *189:X 0.000425225
5 *25:12 0.000524644
6 *196:A *196:C 3.66286e-05
7 *196:A *31:20 4.82919e-05
8 *196:A *43:10 7.40446e-05
9 *197:B1 *31:20 0.000196669
10 *197:B1 *43:10 4.77719e-05
11 *25:12 *189:A 0.000161467
12 *25:12 *190:A 0
13 *25:12 *199:B1 7.24866e-05
14 *25:12 *30:12 0.000147093
15 *25:12 *62:48 5.11434e-05
*RES
1 *189:X *25:12 13.655 
2 *25:12 *197:B1 3.43 
3 *25:12 *196:A 2.395 
4 *25:12 *208:A1 1.6 
*END

*D_NET *26 0.000689536
*CONN
*I *194:A I *D sky130_fd_sc_hd__or3_1
*I *195:B1 I *D sky130_fd_sc_hd__o21ai_1
*I *190:Y O *D sky130_fd_sc_hd__nand2_1
*CAP
1 *194:A 2.76274e-05
2 *195:B1 1.8095e-05
3 *190:Y 8.46244e-05
4 *26:10 0.000130347
5 *194:A *194:B 8.65961e-05
6 *194:A *194:C 7.57202e-05
7 *194:A *62:42 2.30292e-05
8 *195:B1 *194:B 8.49205e-05
9 *195:B1 *194:C 8.49205e-05
10 *26:10 *62:48 0
11 *26:10 *67:58 7.36562e-05
*RES
1 *190:Y *26:10 7.235 
2 *26:10 *195:B1 2.395 
3 *26:10 *194:A 2.74 
*END

*D_NET *27 0.00216973
*CONN
*I *219:A2 I *D sky130_fd_sc_hd__a22o_1
*I *194:B I *D sky130_fd_sc_hd__or3_1
*I *195:A1 I *D sky130_fd_sc_hd__o21ai_1
*I *191:X O *D sky130_fd_sc_hd__and4_1
*CAP
1 *219:A2 0.000400215
2 *194:B 0.000154206
3 *195:A1 0
4 *191:X 0.00010491
5 *27:19 0.000579718
6 *27:10 0.000130206
7 *194:B *194:C 4.21973e-05
8 *194:B *62:42 1.19928e-05
9 *194:B *67:58 4.66108e-05
10 *219:A2 *219:B2 7.35729e-05
11 *219:A2 *31:12 0.000134523
12 *219:A2 *47:10 0
13 *219:A2 *67:58 2.92496e-05
14 *27:10 *29:10 0.000116165
15 *27:10 *62:42 3.47837e-05
16 *27:10 *63:23 4.99619e-05
17 *27:10 *63:36 4.99619e-05
18 *27:19 *29:10 9.50342e-06
19 *27:19 *67:58 3.04396e-05
20 *194:A *194:B 8.65961e-05
21 *195:B1 *194:B 8.49205e-05
*RES
1 *191:X *27:10 5.775 
2 *27:10 *195:A1 3.6 
3 *27:10 *27:19 0.615 
4 *27:19 *194:B 6.48 
5 *27:19 *219:A2 9.9 
*END

*D_NET *28 0.00575158
*CONN
*I *213:C I *D sky130_fd_sc_hd__and3_1
*I *201:B1 I *D sky130_fd_sc_hd__a22oi_1
*I *200:C I *D sky130_fd_sc_hd__and4_1
*I *207:S I *D sky130_fd_sc_hd__mux2_1
*I *192:Y O *D sky130_fd_sc_hd__nand4_2
*CAP
1 *213:C 0.000152967
2 *201:B1 0
3 *200:C 0.000241719
4 *207:S 0.000267984
5 *192:Y 0
6 *28:32 0.000704096
7 *28:20 0.000603249
8 *28:4 0.000561823
9 *200:C *200:D 0.000306161
10 *207:S *201:A2 1.82476e-05
11 *207:S *207:A1 2.30292e-05
12 *207:S *218:B 8.1167e-05
13 *207:S *36:12 0
14 *207:S *38:12 0.00011852
15 *207:S *67:14 2.92496e-05
16 *207:S *67:16 4.66108e-05
17 *207:S *67:27 5.21714e-05
18 *213:C *191:B 6.28765e-05
19 *213:C *192:D 0
20 *213:C *62:12 0
21 *213:C *63:6 1.70906e-05
22 *213:C *63:12 0.000116151
23 *213:C *63:36 0
24 *213:C *65:78 5.02217e-05
25 *28:20 *180:A 0.000196669
26 *28:20 *199:B1 4.82919e-05
27 *28:20 *200:D 7.29911e-05
28 *28:20 *201:A1 9.34744e-05
29 *28:20 *201:B2 9.53428e-06
30 *28:20 *35:6 5.2058e-05
31 *28:20 *53:30 0.000272485
32 *28:20 *63:64 2.89055e-05
33 *28:20 *65:12 0.000180878
34 *28:20 *65:16 8.23535e-05
35 *28:20 *65:25 6.31732e-05
36 *28:32 *200:D 8.23457e-05
37 *28:32 *37:14 7.9642e-06
38 *28:32 *53:22 5.08304e-06
39 *186:C *28:20 0.000271308
40 *202:A1 *207:S 2.25119e-05
41 *217:C1 *207:S 4.76263e-05
42 *217:C1 *28:32 3.82741e-05
43 *23:31 *207:S 4.14953e-05
44 *23:31 *28:20 0.000631414
45 *23:31 *28:32 4.94128e-05
*RES
1 *192:Y *28:4 1.6 
2 *28:4 *28:20 13.59 
3 *28:20 *28:32 6.655 
4 *28:32 *207:S 11.69 
5 *28:32 *200:C 4.81 
6 *28:20 *201:B1 1.6 
7 *28:4 *213:C 8.675 
*END

*D_NET *29 0.00080354
*CONN
*I *194:C I *D sky130_fd_sc_hd__or3_1
*I *195:A2 I *D sky130_fd_sc_hd__o21ai_1
*I *193:Y O *D sky130_fd_sc_hd__nand2_1
*CAP
1 *194:C 4.70886e-05
2 *195:A2 0
3 *193:Y 4.16473e-05
4 *29:10 8.87359e-05
5 *194:C *62:42 0.000234685
6 *29:10 *67:58 6.28765e-05
7 *194:A *194:C 7.57202e-05
8 *194:B *194:C 4.21973e-05
9 *195:B1 *194:C 8.49205e-05
10 *27:10 *29:10 0.000116165
11 *27:19 *29:10 9.50342e-06
*RES
1 *193:Y *29:10 6.98 
2 *29:10 *195:A2 1.6 
3 *29:10 *194:C 3.775 
*END

*D_NET *30 0.00214972
*CONN
*I *196:B I *D sky130_fd_sc_hd__and3_1
*I *208:B1_N I *D sky130_fd_sc_hd__a21boi_1
*I *197:A1 I *D sky130_fd_sc_hd__a21oi_1
*I *194:X O *D sky130_fd_sc_hd__or3_1
*CAP
1 *196:B 6.79584e-05
2 *208:B1_N 0
3 *197:A1 4.36223e-05
4 *194:X 0.000395932
5 *30:14 7.86472e-05
6 *30:12 0.000498916
7 *196:B *196:C 5.89013e-05
8 *196:B *49:14 8.41307e-05
9 *197:A1 *31:20 0.000126412
10 *197:A1 *49:14 7.52604e-05
11 *30:12 *206:B 7.6424e-05
12 *30:12 *62:42 2.23477e-05
13 *30:14 *196:C 4.82863e-05
14 *30:14 *31:20 0.000188873
15 *30:14 *49:14 0.000236918
16 *25:12 *30:12 0.000147093
*RES
1 *194:X *30:12 11.795 
2 *30:12 *30:14 2.175 
3 *30:14 *197:A1 3.1 
4 *30:14 *208:B1_N 1.6 
5 *30:12 *196:B 7.01 
*END

*D_NET *31 0.00190463
*CONN
*I *197:A2 I *D sky130_fd_sc_hd__a21oi_1
*I *196:C I *D sky130_fd_sc_hd__and3_1
*I *208:A2 I *D sky130_fd_sc_hd__a21boi_1
*I *195:Y O *D sky130_fd_sc_hd__o21ai_1
*CAP
1 *197:A2 0
2 *196:C 4.13597e-05
3 *208:A2 0
4 *195:Y 0.000268648
5 *31:20 0.000161122
6 *31:12 0.00038841
7 *196:C *43:10 8.6757e-05
8 *196:C *49:14 2.6496e-06
9 *31:12 *198:B 0
10 *31:12 *216:A 0
11 *31:12 *47:10 0
12 *31:12 *49:14 9.93004e-05
13 *31:12 *67:58 8.53113e-06
14 *31:20 *219:B2 0
15 *31:20 *49:14 9.27255e-06
16 *196:A *196:C 3.66286e-05
17 *196:A *31:20 4.82919e-05
18 *196:B *196:C 5.89013e-05
19 *197:A1 *31:20 0.000126412
20 *197:B1 *31:20 0.000196669
21 *219:A2 *31:12 0.000134523
22 *30:14 *196:C 4.82863e-05
23 *30:14 *31:20 0.000188873
*RES
1 *195:Y *31:12 11.195 
2 *31:12 *31:20 4.035 
3 *31:20 *208:A2 1.6 
4 *31:20 *196:C 3.265 
5 *31:12 *197:A2 1.6 
*END

*D_NET *32 0.000448939
*CONN
*I *198:A I *D sky130_fd_sc_hd__nor2_1
*I *196:X O *D sky130_fd_sc_hd__and3_1
*CAP
1 *198:A 0.000167941
2 *196:X 0.000167941
3 *198:A *34:12 8.64421e-05
4 *198:A *43:10 2.66148e-05
*RES
1 *196:X *198:A 9.825 
*END

*D_NET *33 0.000753576
*CONN
*I *198:B I *D sky130_fd_sc_hd__nor2_1
*I *197:Y O *D sky130_fd_sc_hd__a21oi_1
*CAP
1 *198:B 0.000376788
2 *197:Y 0.000376788
3 *31:12 *198:B 0
*RES
1 *197:Y *198:B 12.465 
*END

*D_NET *34 0.00287889
*CONN
*I *205:A I *D sky130_fd_sc_hd__xnor2_1
*I *204:B I *D sky130_fd_sc_hd__and2b_1
*I *215:A1 I *D sky130_fd_sc_hd__a31o_1
*I *198:Y O *D sky130_fd_sc_hd__nor2_1
*CAP
1 *205:A 7.84427e-05
2 *204:B 0.000318336
3 *215:A1 0
4 *198:Y 0.000354426
5 *34:25 0.000631777
6 *34:12 0.000589424
7 *204:B *204:A_N 3.59311e-05
8 *204:B *233:A 4.27071e-05
9 *204:B *39:12 5.05521e-05
10 *205:A *204:A_N 0
11 *205:A *39:12 4.82919e-05
12 *34:12 *209:A 2.05056e-05
13 *34:12 *211:A 0
14 *34:12 *214:B1 0
15 *34:12 *36:12 0
16 *34:12 *42:14 0.0001249
17 *34:12 *43:27 0.000116158
18 *34:12 *45:8 0.000116158
19 *34:25 *211:A 0
20 *34:25 *211:B 0.000252172
21 *34:25 *45:8 1.26626e-05
22 *198:A *34:12 8.64421e-05
*RES
1 *198:Y *34:12 10.095 
2 *34:12 *215:A1 3.6 
3 *34:12 *34:25 6.665 
4 *34:25 *204:B 6.13 
5 *34:25 *205:A 3.445 
*END

*D_NET *35 0.00167486
*CONN
*I *200:D I *D sky130_fd_sc_hd__and4_1
*I *201:B2 I *D sky130_fd_sc_hd__a22oi_1
*I *199:X O *D sky130_fd_sc_hd__a22o_1
*CAP
1 *200:D 0.000286592
2 *201:B2 1.85694e-05
3 *199:X 0.000171662
4 *35:6 0.000476823
5 *200:D *201:A1 3.19945e-05
6 *200:D *201:A2 1.26854e-05
7 *35:6 *180:A 6.94159e-05
8 *200:C *200:D 0.000306161
9 *202:A2 *200:D 8.40269e-05
10 *28:20 *200:D 7.29911e-05
11 *28:20 *201:B2 9.53428e-06
12 *28:20 *35:6 5.2058e-05
13 *28:32 *200:D 8.23457e-05
*RES
1 *199:X *35:6 3.775 
2 *35:6 *201:B2 1.96 
3 *35:6 *200:D 7.345 
*END

*D_NET *36 0.00243604
*CONN
*I *217:A1 I *D sky130_fd_sc_hd__o211ai_1
*I *202:B1 I *D sky130_fd_sc_hd__a211o_1
*I *203:A_N I *D sky130_fd_sc_hd__and2b_1
*I *215:A2 I *D sky130_fd_sc_hd__a31o_1
*I *200:X O *D sky130_fd_sc_hd__and4_1
*CAP
1 *217:A1 0.00014765
2 *202:B1 7.68964e-05
3 *203:A_N 0
4 *215:A2 0.000124745
5 *200:X 0
6 *36:12 0.000469032
7 *36:6 0.000568834
8 *202:B1 *202:C1 8.7152e-06
9 *202:B1 *218:B 7.7397e-05
10 *215:A2 *214:A1 5.33172e-05
11 *215:A2 *215:B1 3.45679e-05
12 *215:A2 *43:27 7.92997e-05
13 *217:A1 *182:B 4.18603e-06
14 *217:A1 *200:A 0
15 *217:A1 *200:B 3.46842e-05
16 *217:A1 *202:C1 9.58678e-06
17 *217:A1 *217:A2 6.43851e-05
18 *217:A1 *237:A 0
19 *36:12 *200:B 0
20 *36:12 *211:A 9.37731e-05
21 *36:12 *214:A1 2.31229e-05
22 *36:12 *218:B 5.00612e-05
23 *36:12 *38:18 0.000515787
24 *36:12 *43:27 0
25 *36:12 *67:14 0
26 *202:A1 *217:A1 0
27 *207:S *36:12 0
28 *34:12 *36:12 0
*RES
1 *200:X *36:6 3.6 
2 *36:6 *36:12 10.04 
3 *36:12 *215:A2 4.135 
4 *36:12 *203:A_N 1.6 
5 *36:6 *202:B1 5.265 
6 *36:6 *217:A1 6.705 
*END

*D_NET *37 0.00144818
*CONN
*I *202:C1 I *D sky130_fd_sc_hd__a211o_1
*I *217:A2 I *D sky130_fd_sc_hd__o211ai_1
*I *201:Y O *D sky130_fd_sc_hd__a22oi_1
*CAP
1 *202:C1 6.55623e-06
2 *217:A2 0.000105277
3 *201:Y 0.000507902
4 *37:14 0.000619736
5 *202:C1 *218:B 9.76851e-07
6 *217:A2 *218:B 5.28163e-05
7 *217:A2 *53:89 2.75229e-05
8 *37:14 *53:22 2.11552e-05
9 *202:A1 *217:A2 1.01661e-05
10 *202:B1 *202:C1 8.7152e-06
11 *217:A1 *202:C1 9.58678e-06
12 *217:A1 *217:A2 6.43851e-05
13 *217:B1 *217:A2 5.4155e-06
14 *21:10 *217:A2 0
15 *23:31 *37:14 0
16 *28:32 *37:14 7.9642e-06
*RES
1 *201:Y *37:14 5.76643 
2 *37:14 *217:A2 5.9175 
3 *37:14 *202:C1 3.8325 
*END

*D_NET *38 0.0035916
*CONN
*I *218:A I *D sky130_fd_sc_hd__and2_1
*I *214:A1 I *D sky130_fd_sc_hd__a21oi_1
*I *203:B I *D sky130_fd_sc_hd__and2b_1
*I *202:X O *D sky130_fd_sc_hd__a211o_1
*CAP
1 *218:A 4.88743e-05
2 *214:A1 0.000507338
3 *203:B 0
4 *202:X 0.000209606
5 *38:18 0.000726114
6 *38:12 0.000477256
7 *214:A1 *211:B 4.21314e-05
8 *214:A1 *214:B1 1.71013e-05
9 *214:A1 *215:B1 0.000158072
10 *214:A1 *43:27 9.2741e-05
11 *214:A1 *45:8 7.47284e-05
12 *218:A *218:B 0.000123225
13 *38:12 *201:A2 6.74079e-05
14 *38:12 *218:B 0.00015896
15 *38:18 *200:B 0.000137769
16 *38:18 *211:A 3.95347e-05
17 *207:S *38:12 0.00011852
18 *215:A2 *214:A1 5.33172e-05
19 *36:12 *214:A1 2.31229e-05
20 *36:12 *38:18 0.000515787
*RES
1 *202:X *38:12 9.845 
2 *38:12 *38:18 10.735 
3 *38:18 *203:B 1.6 
4 *38:18 *214:A1 12.725 
5 *38:12 *218:A 2.74 
*END

*D_NET *39 0.00101102
*CONN
*I *204:A_N I *D sky130_fd_sc_hd__and2b_1
*I *205:B I *D sky130_fd_sc_hd__xnor2_1
*I *203:X O *D sky130_fd_sc_hd__and2b_1
*CAP
1 *204:A_N 0.000194766
2 *205:B 0
3 *203:X 0.000115749
4 *39:12 0.000310515
5 *204:A_N *233:A 0.000255215
6 *39:12 *211:A 0
7 *204:B *204:A_N 3.59311e-05
8 *204:B *39:12 5.05521e-05
9 *205:A *204:A_N 0
10 *205:A *39:12 4.82919e-05
*RES
1 *203:X *39:12 7.775 
2 *39:12 *205:B 1.6 
3 *39:12 *204:A_N 5.425 
*END

*D_NET *40 0.000424133
*CONN
*I *212:A I *D sky130_fd_sc_hd__xnor2_1
*I *204:X O *D sky130_fd_sc_hd__and2b_1
*CAP
1 *212:A 0.000212066
2 *204:X 0.000212066
3 *212:A *212:B 0
*RES
1 *204:X *212:A 10.41 
*END

*D_NET *41 0.000580489
*CONN
*I *207:A1 I *D sky130_fd_sc_hd__mux2_1
*I *206:Y O *D sky130_fd_sc_hd__nand2_1
*CAP
1 *207:A1 0.000153888
2 *206:Y 0.000153888
3 *207:A1 *206:A 8.65905e-05
4 *207:A1 *42:10 1.33293e-05
5 *207:A1 *67:16 0.000149765
6 *207:S *207:A1 2.30292e-05
*RES
1 *206:Y *207:A1 6.065 
*END

*D_NET *42 0.0013958
*CONN
*I *214:B1 I *D sky130_fd_sc_hd__a21oi_1
*I *209:A I *D sky130_fd_sc_hd__or2_1
*I *210:A I *D sky130_fd_sc_hd__nand2_1
*I *207:X O *D sky130_fd_sc_hd__mux2_1
*CAP
1 *214:B1 8.9862e-05
2 *209:A 0.000162508
3 *210:A 0
4 *207:X 0.000200429
5 *42:14 0.000210094
6 *42:10 0.000337876
7 *209:A *209:B 0.0001249
8 *209:A *67:14 3.23663e-05
9 *214:B1 *45:8 2.37234e-05
10 *42:10 *206:A 3.45588e-05
11 *42:10 *67:14 0
12 *42:10 *67:16 3.64998e-06
13 *207:A1 *42:10 1.33293e-05
14 *214:A1 *214:B1 1.71013e-05
15 *34:12 *209:A 2.05056e-05
16 *34:12 *214:B1 0
17 *34:12 *42:14 0.0001249
*RES
1 *207:X *42:10 6.375 
2 *42:10 *42:14 3.14 
3 *42:14 *210:A 1.6 
4 *42:14 *209:A 4.48 
5 *42:10 *214:B1 5.235 
*END

*D_NET *43 0.00188356
*CONN
*I *209:B I *D sky130_fd_sc_hd__or2_1
*I *210:B I *D sky130_fd_sc_hd__nand2_1
*I *214:A2 I *D sky130_fd_sc_hd__a21oi_1
*I *208:Y O *D sky130_fd_sc_hd__a21boi_1
*CAP
1 *209:B 3.92346e-05
2 *210:B 0
3 *214:A2 0
4 *208:Y 0.00024368
5 *43:27 0.000268719
6 *43:10 0.000473165
7 *209:B *67:14 2.75229e-05
8 *43:10 *49:14 5.86195e-05
9 *43:27 *211:A 0
10 *43:27 *215:B1 7.57792e-05
11 *43:27 *49:14 4.85494e-05
12 *196:A *43:10 7.40446e-05
13 *196:C *43:10 8.6757e-05
14 *197:B1 *43:10 4.77719e-05
15 *198:A *43:10 2.66148e-05
16 *209:A *209:B 0.0001249
17 *214:A1 *43:27 9.2741e-05
18 *215:A2 *43:27 7.92997e-05
19 *34:12 *43:27 0.000116158
20 *36:12 *43:27 0
*RES
1 *208:Y *43:10 5.53 
2 *43:10 *214:A2 1.6 
3 *43:10 *43:27 8.965 
4 *43:27 *210:B 1.6 
5 *43:27 *209:B 2.74 
*END

*D_NET *44 0.000646553
*CONN
*I *211:A I *D sky130_fd_sc_hd__nand2_1
*I *209:X O *D sky130_fd_sc_hd__or2_1
*CAP
1 *211:A 0.000249428
2 *209:X 0.000249428
3 *211:A *211:B 0
4 *211:A *67:14 1.4389e-05
5 *34:12 *211:A 0
6 *34:25 *211:A 0
7 *36:12 *211:A 9.37731e-05
8 *38:18 *211:A 3.95347e-05
9 *39:12 *211:A 0
10 *43:27 *211:A 0
*RES
1 *209:X *211:A 11.325 
*END

*D_NET *45 0.00108001
*CONN
*I *211:B I *D sky130_fd_sc_hd__nand2_1
*I *215:A3 I *D sky130_fd_sc_hd__a31o_1
*I *210:Y O *D sky130_fd_sc_hd__nand2_1
*CAP
1 *211:B 0.000207339
2 *215:A3 0
3 *210:Y 7.18776e-05
4 *45:8 0.000279217
5 *211:A *211:B 0
6 *214:A1 *211:B 4.21314e-05
7 *214:A1 *45:8 7.47284e-05
8 *214:B1 *45:8 2.37234e-05
9 *34:12 *45:8 0.000116158
10 *34:25 *211:B 0.000252172
11 *34:25 *45:8 1.26626e-05
*RES
1 *210:Y *45:8 5.235 
2 *45:8 *215:A3 3.6 
3 *45:8 *211:B 7.92 
*END

*D_NET *46 0.000409652
*CONN
*I *212:B I *D sky130_fd_sc_hd__xnor2_1
*I *211:Y O *D sky130_fd_sc_hd__nand2_1
*CAP
1 *212:B 0.000204826
2 *211:Y 0.000204826
3 *212:A *212:B 0
*RES
1 *211:Y *212:B 10.32 
*END

*D_NET *47 0.0014444
*CONN
*I *216:A I *D sky130_fd_sc_hd__xor2_1
*I *219:B1 I *D sky130_fd_sc_hd__a22o_1
*I *213:X O *D sky130_fd_sc_hd__and3_1
*CAP
1 *216:A 0.000233463
2 *219:B1 0
3 *213:X 0.000219298
4 *47:10 0.000452762
5 *216:A *216:B 0.000163199
6 *216:A *235:A 0
7 *47:10 *213:A 3.64998e-06
8 *47:10 *219:A1 0.000273001
9 *47:10 *63:6 5.07419e-05
10 *47:10 *67:58 4.82863e-05
11 *219:A2 *47:10 0
12 *31:12 *216:A 0
13 *31:12 *47:10 0
*RES
1 *213:X *47:10 8.415 
2 *47:10 *219:B1 3.6 
3 *47:10 *216:A 7.83 
*END

*D_NET *48 0.000495394
*CONN
*I *215:B1 I *D sky130_fd_sc_hd__a31o_1
*I *214:Y O *D sky130_fd_sc_hd__a21oi_1
*CAP
1 *215:B1 8.85066e-05
2 *214:Y 8.85066e-05
3 *215:B1 *49:14 4.99619e-05
4 *214:A1 *215:B1 0.000158072
5 *215:A2 *215:B1 3.45679e-05
6 *43:27 *215:B1 7.57792e-05
*RES
1 *214:Y *215:B1 5.735 
*END

*D_NET *49 0.00312279
*CONN
*I *216:B I *D sky130_fd_sc_hd__xor2_1
*I *219:B2 I *D sky130_fd_sc_hd__a22o_1
*I *215:X O *D sky130_fd_sc_hd__a31o_1
*CAP
1 *216:B 0.000302359
2 *219:B2 0.000121456
3 *215:X 0.000686864
4 *49:14 0.00111068
5 *196:B *49:14 8.41307e-05
6 *196:C *49:14 2.6496e-06
7 *197:A1 *49:14 7.52604e-05
8 *215:B1 *49:14 4.99619e-05
9 *216:A *216:B 0.000163199
10 *219:A2 *219:B2 7.35729e-05
11 *30:14 *49:14 0.000236918
12 *31:12 *49:14 9.93004e-05
13 *31:20 *219:B2 0
14 *31:20 *49:14 9.27255e-06
15 *43:10 *49:14 5.86195e-05
16 *43:27 *49:14 4.85494e-05
*RES
1 *215:X *49:14 11.95 
2 *49:14 *219:B2 3.955 
3 *49:14 *216:B 10.535 
*END

*D_NET *50 0.00123962
*CONN
*I *218:B I *D sky130_fd_sc_hd__and2_1
*I *217:Y O *D sky130_fd_sc_hd__o211ai_1
*CAP
1 *218:B 0.00029117
2 *217:Y 0.00029117
3 *202:A1 *218:B 0.000112679
4 *202:B1 *218:B 7.7397e-05
5 *202:C1 *218:B 9.76851e-07
6 *207:S *218:B 8.1167e-05
7 *217:A2 *218:B 5.28163e-05
8 *218:A *218:B 0.000123225
9 *36:12 *218:B 5.00612e-05
10 *38:12 *218:B 0.00015896
*RES
1 *217:Y *218:B 14.085 
*END

*D_NET *51 6.92906e-05
*CONN
*I *220:A I *D sky130_fd_sc_hd__clkbuf_1
*I *182:X O *D sky130_fd_sc_hd__and2_1
*CAP
1 *220:A 1.96262e-05
2 *182:X 1.96262e-05
3 *220:A *221:A 3.00381e-05
*RES
1 *182:X *220:A 3.65 
*END

*D_NET *52 0.00120001
*CONN
*I *221:A I *D sky130_fd_sc_hd__clkbuf_1
*I *181:X O *D sky130_fd_sc_hd__and2_1
*CAP
1 *221:A 0.000290808
2 *181:X 0.000290808
3 *221:A *200:A 0.000112349
4 *221:A *230:A 0
5 *221:A *53:14 0.000201503
6 *221:A *53:89 0.0001249
7 *217:B1 *221:A 2.30292e-05
8 *217:C1 *221:A 0.00012657
9 *220:A *221:A 3.00381e-05
*RES
1 *181:X *221:A 9.545 
*END

*D_NET *53 0.00592196
*CONN
*I *200:A I *D sky130_fd_sc_hd__and4_1
*I *182:A I *D sky130_fd_sc_hd__and2_1
*I *181:B I *D sky130_fd_sc_hd__and2_1
*I *201:A1 I *D sky130_fd_sc_hd__a22oi_1
*I *184:B I *D sky130_fd_sc_hd__nand4_1
*I *183:B I *D sky130_fd_sc_hd__and4_1
*I *185:B2 I *D sky130_fd_sc_hd__a22oi_1
*I *222:X O *D sky130_fd_sc_hd__dlymetal6s2s_1
*CAP
1 *200:A 0.000208948
2 *182:A 0
3 *181:B 0
4 *201:A1 6.85011e-05
5 *184:B 5.60736e-05
6 *183:B 0.000307377
7 *185:B2 0.000152821
8 *222:X 9.29457e-05
9 *53:89 0.000292009
10 *53:32 0.000522213
11 *53:30 0.000280641
12 *53:22 0.000429043
13 *53:14 0.000426734
14 *53:8 0.000404751
15 *183:B *183:A 8.33492e-05
16 *183:B *183:D 0
17 *183:B *184:C 4.24292e-06
18 *183:B *199:A1 7.06865e-05
19 *183:B *61:10 3.47754e-05
20 *183:B *61:18 2.28718e-05
21 *183:B *65:33 4.46271e-05
22 *183:B *66:23 0
23 *185:B2 *184:D 6.32486e-05
24 *185:B2 *65:33 4.63425e-05
25 *200:A *182:B 3.09233e-05
26 *200:A *237:A 0
27 *201:A1 *201:A2 3.17002e-05
28 *53:8 *182:B 0
29 *53:22 *180:A 7.90871e-05
30 *53:22 *181:A 0.000164874
31 *53:30 *199:A1 9.30787e-05
32 *53:30 *199:B1 2.99172e-05
33 *187:A2_N *185:B2 9.16019e-05
34 *187:B2 *184:B 7.50252e-05
35 *187:B2 *185:B2 8.41307e-05
36 *187:B2 *53:32 7.26348e-05
37 *200:D *201:A1 3.19945e-05
38 *217:A1 *200:A 0
39 *217:A2 *53:89 2.75229e-05
40 *217:B1 *53:14 0
41 *217:C1 *53:14 2.30292e-05
42 *217:C1 *53:22 0
43 *221:A *200:A 0.000112349
44 *221:A *53:14 0.000201503
45 *221:A *53:89 0.0001249
46 *223:A *183:B 7.54478e-05
47 *21:10 *53:14 1.30557e-05
48 *21:10 *53:22 0.000142669
49 *23:31 *201:A1 0.000139635
50 *23:31 *53:30 0.000272485
51 *28:20 *201:A1 9.34744e-05
52 *28:20 *53:30 0.000272485
53 *28:32 *53:22 5.08304e-06
54 *37:14 *53:22 2.11552e-05
*RES
1 *222:X *53:8 4.98 
2 *53:8 *53:14 5.39 
3 *53:14 *53:22 8.575 
4 *53:22 *53:30 8.41 
5 *53:30 *53:32 0.795 
6 *53:32 *185:B2 8.21 
7 *53:32 *183:B 10.85 
8 *53:30 *184:B 2.395 
9 *53:22 *201:A1 4.165 
10 *53:14 *181:B 1.6 
11 *53:8 *53:89 3.755 
12 *53:89 *182:A 1.6 
13 *53:89 *200:A 9.08 
*END

*D_NET *54 0.000268131
*CONN
*I *230:A I *D sky130_fd_sc_hd__buf_2
*I *221:X O *D sky130_fd_sc_hd__clkbuf_1
*CAP
1 *230:A 0.000134066
2 *221:X 0.000134066
3 *221:A *230:A 0
*RES
1 *221:X *230:A 5.3 
*END

*D_NET *55 0.000529838
*CONN
*I *231:A I *D sky130_fd_sc_hd__buf_2
*I *188:X O *D sky130_fd_sc_hd__and2_1
*CAP
1 *231:A 0.000182881
2 *188:X 0.000182881
3 *231:A *183:D 0
4 *231:A *61:24 0
5 *231:A *64:38 8.65905e-05
6 *231:A *66:8 2.75229e-05
7 *186:B *231:A 0
8 *228:A *231:A 4.99619e-05
*RES
1 *188:X *231:A 10.335 
*END

*D_NET *56 0.000709973
*CONN
*I *232:A I *D sky130_fd_sc_hd__buf_2