*SPEF "ieee 1481-1999"
*DESIGN "SarsaNada_e10_1"
*DATE "18:18:49 Tuesday September 16, 2025"
*VENDOR "The OpenROAD Project"
*PROGRAM "OpenROAD"
*VERSION "edf00dff99f6c40d67a30c0e22a8191c5d2ed9d6"
*DESIGN_FLOW "NAME_SCOPE LOCAL" "PIN_CAP NONE"
*DIVIDER /
*DELIMITER :
*BUS_DELIMITER []
*T_UNIT 1 NS
*C_UNIT 1 PF
*R_UNIT 1 OHM
*L_UNIT 1 HENRY

*NAME_MAP
*1 A[0]
*2 A[1]
*3 B[0]
*4 B[1]
*5 P[0]
*6 P[1]
*7 P[2]
*8 P[3]
*11 _0_
*12 _1_
*13 _2_
*14 net1
*15 net2
*16 net3
*17 net4
*18 net5
*19 net6
*20 net7
*21 net8
*22 FILLER_0_15
*23 FILLER_0_27
*24 FILLER_0_29
*25 FILLER_0_3
*26 FILLER_0_41
*27 FILLER_0_53
*28 FILLER_0_57
*29 FILLER_0_69
*30 FILLER_1_15
*31 FILLER_1_27
*32 FILLER_1_3
*33 FILLER_1_39
*34 FILLER_1_51
*35 FILLER_1_55
*36 FILLER_1_57
*37 FILLER_1_69
*38 FILLER_2_15
*39 FILLER_2_27
*40 FILLER_2_29
*41 FILLER_2_3
*42 FILLER_2_41
*43 FILLER_2_53
*44 FILLER_2_65
*45 FILLER_2_77
*46 FILLER_3_15
*47 FILLER_3_27
*48 FILLER_3_3
*49 FILLER_3_39
*50 FILLER_3_51
*51 FILLER_3_55
*52 FILLER_3_57
*53 FILLER_3_69
*54 FILLER_4_18
*55 FILLER_4_26
*56 FILLER_4_29
*57 FILLER_4_41
*58 FILLER_4_53
*59 FILLER_4_6
*60 FILLER_4_65
*61 FILLER_4_77
*62 FILLER_5_19
*63 FILLER_5_31
*64 FILLER_5_43
*65 FILLER_5_55
*66 FILLER_5_57
*67 FILLER_5_69
*68 FILLER_5_7
*69 FILLER_6_22
*70 FILLER_6_29
*71 FILLER_6_41
*72 FILLER_6_53
*73 FILLER_6_6
*74 FILLER_6_65
*75 FILLER_6_77
*76 FILLER_7_32
*77 FILLER_7_44
*78 FILLER_7_57
*79 FILLER_7_6
*80 FILLER_7_69
*81 FILLER_8_15
*82 FILLER_8_27
*83 FILLER_8_29
*84 FILLER_8_3
*85 FILLER_8_37
*86 FILLER_8_46
*87 FILLER_8_58
*88 FILLER_8_70
*89 FILLER_8_78
*90 FILLER_9_15
*91 FILLER_9_27
*92 FILLER_9_29
*93 FILLER_9_3
*94 FILLER_9_37
*95 FILLER_9_42
*96 FILLER_9_49
*97 FILLER_9_55
*98 FILLER_9_57
*99 FILLER_9_69
*100 PHY_EDGE_ROW_0_Left_10
*101 PHY_EDGE_ROW_0_Right_0
*102 PHY_EDGE_ROW_1_Left_11
*103 PHY_EDGE_ROW_1_Right_1
*104 PHY_EDGE_ROW_2_Left_12
*105 PHY_EDGE_ROW_2_Right_2
*106 PHY_EDGE_ROW_3_Left_13
*107 PHY_EDGE_ROW_3_Right_3
*108 PHY_EDGE_ROW_4_Left_14
*109 PHY_EDGE_ROW_4_Right_4
*110 PHY_EDGE_ROW_5_Left_15
*111 PHY_EDGE_ROW_5_Right_5
*112 PHY_EDGE_ROW_6_Left_16
*113 PHY_EDGE_ROW_6_Right_6
*114 PHY_EDGE_ROW_7_Left_17
*115 PHY_EDGE_ROW_7_Right_7
*116 PHY_EDGE_ROW_8_Left_18
*117 PHY_EDGE_ROW_8_Right_8
*118 PHY_EDGE_ROW_9_Left_19
*119 PHY_EDGE_ROW_9_Right_9
*120 TAP_TAPCELL_ROW_0_20
*121 TAP_TAPCELL_ROW_0_21
*122 TAP_TAPCELL_ROW_1_22
*123 TAP_TAPCELL_ROW_2_23
*124 TAP_TAPCELL_ROW_3_24
*125 TAP_TAPCELL_ROW_4_25
*126 TAP_TAPCELL_ROW_5_26
*127 TAP_TAPCELL_ROW_6_27
*128 TAP_TAPCELL_ROW_7_28
*129 TAP_TAPCELL_ROW_8_29
*130 TAP_TAPCELL_ROW_9_30
*131 TAP_TAPCELL_ROW_9_31
*132 _3_
*133 _4_
*134 _5_
*135 _6_
*136 _7_
*137 _8_
*138 _9_
*139 input1
*140 input2
*141 input3
*142 input4
*143 output5
*144 output6
*145 output7
*146 output8

*PORTS
A[0] I
A[1] I
B[0] I
B[1] I
P[0] O
P[1] O
P[2] O
P[3] O

*D_NET *1 0.000641155
*CONN
*P A[0] I
*I *139:A I *D sky130_fd_sc_hd__buf_1
*CAP
1 A[0] 0.000305759
2 *139:A 0.000305759
3 *139:A P[0] 2.96366e-05
*RES
1 A[0] *139:A 7.8543 
*END

*D_NET *2 0.000874436
*CONN
*P A[1] I
*I *140:A I *D sky130_fd_sc_hd__buf_1
*CAP
1 A[1] 0.000437218
2 *140:A 0.000437218
3 *140:A P[2] 0
*RES
1 A[1] *140:A 11.37 
*END

*D_NET *3 0.000487581
*CONN
*P B[0] I
*I *141:A I *D sky130_fd_sc_hd__buf_1
*CAP
1 B[0] 0.000218292
2 *141:A 0.000218292
3 *141:A P[0] 2.85068e-05
4 *141:A *142:A 2.24901e-05
*RES
1 B[0] *141:A 5.35677 
*END

*D_NET *4 0.000532809
*CONN
*P B[1] I
*I *142:A I *D sky130_fd_sc_hd__buf_1
*CAP
1 B[1] 0.000255159
2 *142:A 0.000255159
3 *141:A *142:A 2.24901e-05
*RES
1 B[1] *142:A 6.8343 
*END

*D_NET *5 0.000661148
*CONN
*P P[0] O
*I *143:X O *D sky130_fd_sc_hd__buf_2
*CAP
1 P[0] 0.000301502
2 *143:X 0.000301502
3 *139:A P[0] 2.96366e-05
4 *141:A P[0] 2.85068e-05
*RES
1 *143:X P[0] 7.1793 
*END

*D_NET *6 0.000444803
*CONN
*P P[1] O
*I *144:X O *D sky130_fd_sc_hd__buf_2
*CAP
1 P[1] 0.000222401
2 *144:X 0.000222401
*RES
1 *144:X P[1] 4.90503 
*END

*D_NET *7 0.000894056
*CONN
*P P[2] O
*I *145:X O *D sky130_fd_sc_hd__buf_2
*CAP
1 P[2] 0.000447028
2 *145:X 0.000447028
3 P[2] P[3] 0
4 *140:A P[2] 0
*RES
1 *145:X P[2] 11.55 
*END

*D_NET *8 0.00085605
*CONN
*P P[3] O
*I *146:X O *D sky130_fd_sc_hd__buf_2
*CAP
1 P[3] 0.000428025
2 *146:X 0.000428025
3 P[2] P[3] 0
*RES
1 *146:X P[3] 11.205 
*END

*D_NET *11 0.000732244
*CONN
*I *137:A1 I *D sky130_fd_sc_hd__o21ba_1
*I *135:Y O *D sky130_fd_sc_hd__nor2_1
*CAP
1 *137:A1 0.000278083
2 *135:Y 0.000278083
3 *137:A1 *137:A2 4.18051e-05
4 *137:A1 *137:B1_N 3.99879e-05
5 *137:A1 *144:A 8.57024e-05
6 *137:A1 *15:20 8.58339e-06
*RES
1 *135:Y *137:A1 7.025 
*END

*D_NET *12 0.00109774
*CONN
*I *137:A2 I *D sky130_fd_sc_hd__o21ba_1
*I *136:X O *D sky130_fd_sc_hd__a22o_1
*CAP
1 *137:A2 0.000193306
2 *136:X 0.000193306
3 *137:A2 *136:A2 3.26889e-05
4 *137:A2 *137:B1_N 0.000325406
5 *137:A2 *15:20 0.000185258
6 *137:A2 *21:8 0.000125972
7 *137:A1 *137:A2 4.18051e-05
*RES
1 *136:X *137:A2 9.545 
*END

*D_NET *13 0.000220208
*CONN
*I *133:A1 I *D sky130_fd_sc_hd__mux2_1
*I *132:X O *D sky130_fd_sc_hd__a21bo_1
*CAP
1 *133:A1 8.17338e-05
2 *132:X 8.17338e-05
3 *133:A1 *133:A0 3.00381e-05
4 *133:A1 *133:S 2.67022e-05
*RES
1 *132:X *133:A1 8.52 
*END

*D_NET *14 0.00273104
*CONN
*I *134:D I *D sky130_fd_sc_hd__and4_1
*I *136:B1 I *D sky130_fd_sc_hd__a22o_1
*I *132:B1_N I *D sky130_fd_sc_hd__a21bo_1
*I *133:A0 I *D sky130_fd_sc_hd__mux2_1
*I *139:X O *D sky130_fd_sc_hd__buf_1
*CAP
1 *134:D 0
2 *136:B1 5.08782e-05
3 *132:B1_N 0
4 *133:A0 9.38801e-05
5 *139:X 0.000516308
6 *14:38 0.000272593
7 *14:25 0.00037436
8 *14:10 0.000762834
9 *136:B1 *134:C 3.26889e-05
10 *136:B1 *136:A1 0.00011964
11 *136:B1 *136:A2 1.37328e-05
12 *136:B1 *15:22 0.000201508
13 *14:10 *133:S 3.09164e-05
14 *14:25 *133:S 0.000109995
15 *14:25 *16:21 2.77283e-05
16 *14:38 *133:S 0
17 *14:38 *136:B2 4.18603e-06
18 *14:38 *16:21 8.97564e-05
19 *133:A1 *133:A0 3.00381e-05
*RES
1 *139:X *14:10 9.825 
2 *14:10 *133:A0 5.085 
3 *14:10 *14:25 4.52 
4 *14:25 *132:B1_N 1.6 
5 *14:25 *14:38 7.36 
6 *14:38 *136:B1 4.15 
7 *14:38 *134:D 1.6 
*END

*D_NET *15 0.00477542
*CONN
*I *138:B I *D sky130_fd_sc_hd__and3b_1
*I *135:B I *D sky130_fd_sc_hd__nor2_1
*I *136:A2 I *D sky130_fd_sc_hd__a22o_1
*I *134:C I *D sky130_fd_sc_hd__and4_1
*I *132:A2 I *D sky130_fd_sc_hd__a21bo_1
*I *140:X O *D sky130_fd_sc_hd__buf_1
*CAP
1 *138:B 0.000280191
2 *135:B 0
3 *136:A2 2.60976e-05
4 *134:C 2.56275e-05
5 *132:A2 0.000250635
6 *140:X 0.000121173
7 *15:22 0.000436278
8 *15:20 0.000899129
9 *15:12 0.000842906
10 *15:10 0.000531254
11 *132:A2 *133:S 0.000116158
12 *132:A2 *136:A1 1.03423e-05
13 *132:A2 *17:6 4.11678e-06
14 *132:A2 *17:19 4.40325e-06
15 *132:A2 *17:34 7.9205e-06
16 *134:C *136:A1 9.53428e-06
17 *136:A2 *21:8 3.00381e-05
18 *138:B *135:A 0.000128671
19 *138:B *17:49 3.26519e-06
20 *15:12 *135:A 5.46798e-05
21 *15:20 *135:A 5.53249e-06
22 *15:20 *137:B1_N 0.000428256
23 *15:20 *144:A 4.10476e-05
24 *15:20 *21:8 3.52139e-06
25 *15:22 *136:A1 3.09088e-05
26 *15:22 *21:8 9.27255e-06
27 *136:B1 *134:C 3.26889e-05
28 *136:B1 *136:A2 1.37328e-05
29 *136:B1 *15:22 0.000201508
30 *137:A1 *15:20 8.58339e-06
31 *137:A2 *136:A2 3.26889e-05
32 *137:A2 *15:20 0.000185258
*RES
1 *140:X *15:10 5.175 
2 *15:10 *15:12 2.4 
3 *15:12 *15:20 11.96 
4 *15:20 *15:22 3.21 
5 *15:22 *132:A2 9.17 
6 *15:22 *134:C 2.215 
7 *15:20 *136:A2 2.665 
8 *15:12 *135:B 3.6 
9 *15:10 *138:B 8.205 
*END

*D_NET *16 0.00176502
*CONN
*I *136:A1 I *D sky130_fd_sc_hd__a22o_1
*I *134:B I *D sky130_fd_sc_hd__and4_1
*I *132:A1 I *D sky130_fd_sc_hd__a21bo_1
*I *141:X O *D sky130_fd_sc_hd__buf_1
*CAP
1 *136:A1 8.34143e-05
2 *134:B 0
3 *132:A1 2.08101e-05
4 *141:X 0.000315347
5 *16:21 0.000223038
6 *16:6 0.000475781
7 *136:A1 *134:A 5.4155e-06
8 *136:A1 *17:34 0.00012657
9 *136:A1 *21:8 0.000162311
10 *16:21 *133:S 6.4422e-05
11 *132:A2 *136:A1 1.03423e-05
12 *134:C *136:A1 9.53428e-06
13 *136:B1 *136:A1 0.00011964
14 *14:25 *16:21 2.77283e-05
15 *14:38 *16:21 8.97564e-05
16 *15:22 *136:A1 3.09088e-05
*RES
1 *141:X *16:6 5.845 
2 *16:6 *132:A1 1.96 
3 *16:6 *16:21 7.03 
4 *16:21 *134:B 1.6 
5 *16:21 *136:A1 4.825 
*END

*D_NET *17 0.00450076
*CONN
*I *135:A I *D sky130_fd_sc_hd__nor2_1
*I *138:C I *D sky130_fd_sc_hd__and3b_1
*I *136:B2 I *D sky130_fd_sc_hd__a22o_1
*I *134:A I *D sky130_fd_sc_hd__and4_1
*I *133:S I *D sky130_fd_sc_hd__mux2_1
*I *142:X O *D sky130_fd_sc_hd__buf_1
*CAP
1 *135:A 0.000345188
2 *138:C 0
3 *136:B2 3.17728e-05
4 *134:A 1.88809e-05
5 *133:S 0.000222861
6 *142:X 0.000390866
7 *17:49 0.000985597
8 *17:34 0.000887911
9 *17:19 0.000272804
10 *17:6 0.000651921
11 *132:A2 *133:S 0.000116158
12 *132:A2 *17:6 4.11678e-06
13 *132:A2 *17:19 4.40325e-06
14 *132:A2 *17:34 7.9205e-06
15 *133:A1 *133:S 2.67022e-05
16 *136:A1 *134:A 5.4155e-06
17 *136:A1 *17:34 0.00012657
18 *138:B *135:A 0.000128671
19 *138:B *17:49 3.26519e-06
20 *14:10 *133:S 3.09164e-05
21 *14:25 *133:S 0.000109995
22 *14:38 *133:S 0
23 *14:38 *136:B2 4.18603e-06
24 *15:12 *135:A 5.46798e-05
25 *15:20 *135:A 5.53249e-06
26 *16:21 *133:S 6.4422e-05
*RES
1 *142:X *17:6 5.845 
2 *17:6 *133:S 10.55 
3 *17:6 *17:19 0.45 
4 *17:19 *134:A 1.96 
5 *17:19 *17:34 4.8575 
6 *17:34 *136:B2 4.3425 
7 *17:34 *17:49 9.0575 
8 *17:49 *138:C 1.6 
9 *17:49 *135:A 10.535 
*END

*D_NET *18 0.000268131
*CONN
*I *143:A I *D sky130_fd_sc_hd__buf_2
*I *133:X O *D sky130_fd_sc_hd__mux2_1
*CAP
1 *143:A 0.000134066
2 *133:X 0.000134066
*RES
1 *133:X *143:A 5.3 
*END

*D_NET *19 0.00129252
*CONN
*I *144:A I *D sky130_fd_sc_hd__buf_2
*I *137:X O *D sky130_fd_sc_hd__o21ba_1
*CAP
1 *144:A 0.000582884
2 *137:X 0.000582884
3 *137:A1 *144:A 8.57024e-05
4 *15:20 *144:A 4.10476e-05
*RES
1 *137:X *144:A 12.395 
*END

*D_NET *20 0.000210452
*CONN
*I *145:A I *D sky130_fd_sc_hd__buf_2
*I *138:X O *D sky130_fd_sc_hd__and3b_1
*CAP
1 *145:A 0.000105226
2 *138:X 0.000105226
3 *145:A *146:A 0
*RES
1 *138:X *145:A 8.835 
*END

*D_NET *21 0.00283571
*CONN
*I *146:A I *D sky130_fd_sc_hd__buf_2
*I *138:A_N I *D sky130_fd_sc_hd__and3b_1
*I *137:B1_N I *D sky130_fd_sc_hd__o21ba_1
*I *134:X O *D sky130_fd_sc_hd__and4_1
*CAP
1 *146:A 0.000201647
2 *138:A_N 0
3 *137:B1_N 0.000166424
4 *134:X 0.000394454
5 *21:23 0.000294592
6 *21:8 0.000653824
7 *136:A1 *21:8 0.000162311
8 *136:A2 *21:8 3.00381e-05
9 *137:A1 *137:B1_N 3.99879e-05
10 *137:A2 *137:B1_N 0.000325406
11 *137:A2 *21:8 0.000125972
12 *145:A *146:A 0
13 *15:20 *137:B1_N 0.000428256
14 *15:20 *21:8 3.52139e-06
15 *15:22 *21:8 9.27255e-06
*RES
1 *134:X *21:8 8.88 
2 *21:8 *137:B1_N 9.24 
3 *21:8 *21:23 1.38 
4 *21:23 *138:A_N 3.6 
5 *21:23 *146:A 6.795 
*END
