*SPEF "ieee 1481-1999"
*DESIGN "SarsanstepsNada_e8_1"
*DATE "18:27:37 Tuesday September 16, 2025"
*VENDOR "The OpenROAD Project"
*PROGRAM "OpenROAD"
*VERSION "edf00dff99f6c40d67a30c0e22a8191c5d2ed9d6"
*DESIGN_FLOW "NAME_SCOPE LOCAL" "PIN_CAP NONE"
*DIVIDER /
*DELIMITER :
*BUS_DELIMITER []
*T_UNIT 1 NS
*C_UNIT 1 PF
*R_UNIT 1 OHM
*L_UNIT 1 HENRY

*NAME_MAP
*1 A[0]
*2 A[1]
*3 B[0]
*4 B[1]
*5 P[0]
*6 P[1]
*7 P[2]
*8 P[3]
*11 _0_
*12 net1
*13 net2
*14 net3
*15 net4
*16 net5
*17 net6
*18 net7
*19 net8
*20 FILLER_0_15
*21 FILLER_0_27
*22 FILLER_0_29
*23 FILLER_0_3
*24 FILLER_0_41
*25 FILLER_0_53
*26 FILLER_0_57
*27 FILLER_0_69
*28 FILLER_1_15
*29 FILLER_1_27
*30 FILLER_1_3
*31 FILLER_1_39
*32 FILLER_1_51
*33 FILLER_1_55
*34 FILLER_1_57
*35 FILLER_1_69
*36 FILLER_2_18
*37 FILLER_2_26
*38 FILLER_2_29
*39 FILLER_2_41
*40 FILLER_2_53
*41 FILLER_2_6
*42 FILLER_2_65
*43 FILLER_2_77
*44 FILLER_3_15
*45 FILLER_3_27
*46 FILLER_3_3
*47 FILLER_3_39
*48 FILLER_3_51
*49 FILLER_3_55
*50 FILLER_3_57
*51 FILLER_3_69
*52 FILLER_4_10
*53 FILLER_4_21
*54 FILLER_4_27
*55 FILLER_4_29
*56 FILLER_4_41
*57 FILLER_4_53
*58 FILLER_4_6
*59 FILLER_4_65
*60 FILLER_4_77
*61 FILLER_5_17
*62 FILLER_5_29
*63 FILLER_5_41
*64 FILLER_5_53
*65 FILLER_5_57
*66 FILLER_5_6
*67 FILLER_5_69
*68 FILLER_6_16
*69 FILLER_6_32
*70 FILLER_6_44
*71 FILLER_6_56
*72 FILLER_6_68
*73 FILLER_6_7
*74 FILLER_6_76
*75 FILLER_7_19
*76 FILLER_7_31
*77 FILLER_7_43
*78 FILLER_7_55
*79 FILLER_7_57
*80 FILLER_7_69
*81 FILLER_7_7
*82 FILLER_8_15
*83 FILLER_8_27
*84 FILLER_8_29
*85 FILLER_8_3
*86 FILLER_8_41
*87 FILLER_8_53
*88 FILLER_8_65
*89 FILLER_8_77
*90 FILLER_9_18
*91 FILLER_9_26
*92 FILLER_9_29
*93 FILLER_9_41
*94 FILLER_9_53
*95 FILLER_9_57
*96 FILLER_9_6
*97 FILLER_9_69
*98 PHY_EDGE_ROW_0_Left_10
*99 PHY_EDGE_ROW_0_Right_0
*100 PHY_EDGE_ROW_1_Left_11
*101 PHY_EDGE_ROW_1_Right_1
*102 PHY_EDGE_ROW_2_Left_12
*103 PHY_EDGE_ROW_2_Right_2
*104 PHY_EDGE_ROW_3_Left_13
*105 PHY_EDGE_ROW_3_Right_3
*106 PHY_EDGE_ROW_4_Left_14
*107 PHY_EDGE_ROW_4_Right_4
*108 PHY_EDGE_ROW_5_Left_15
*109 PHY_EDGE_ROW_5_Right_5
*110 PHY_EDGE_ROW_6_Left_16
*111 PHY_EDGE_ROW_6_Right_6
*112 PHY_EDGE_ROW_7_Left_17
*113 PHY_EDGE_ROW_7_Right_7
*114 PHY_EDGE_ROW_8_Left_18
*115 PHY_EDGE_ROW_8_Right_8
*116 PHY_EDGE_ROW_9_Left_19
*117 PHY_EDGE_ROW_9_Right_9
*118 TAP_TAPCELL_ROW_0_20
*119 TAP_TAPCELL_ROW_0_21
*120 TAP_TAPCELL_ROW_1_22
*121 TAP_TAPCELL_ROW_2_23
*122 TAP_TAPCELL_ROW_3_24
*123 TAP_TAPCELL_ROW_4_25
*124 TAP_TAPCELL_ROW_5_26
*125 TAP_TAPCELL_ROW_6_27
*126 TAP_TAPCELL_ROW_7_28
*127 TAP_TAPCELL_ROW_8_29
*128 TAP_TAPCELL_ROW_9_30
*129 TAP_TAPCELL_ROW_9_31
*130 _1_
*131 _2_
*132 _3_
*133 _4_
*134 _5_
*135 input1
*136 input2
*137 input3
*138 input4
*139 output5
*140 output6
*141 output7
*142 output8

*PORTS
A[0] I
A[1] I
B[0] I
B[1] I
P[0] O
P[1] O
P[2] O
P[3] O

*D_NET *1 0.000618322
*CONN
*P A[0] I
*I *135:A I *D sky130_fd_sc_hd__clkbuf_1
*CAP
1 A[0] 0.000295572
2 *135:A 0.000295572
3 *135:A *137:A 2.71788e-05
*RES
1 A[0] *135:A 20.7838 
*END

*D_NET *2 0.000696316
*CONN
*P A[1] I
*I *136:A I *D sky130_fd_sc_hd__clkbuf_1
*CAP
1 A[1] 0.000307247
2 *136:A 0.000307247
3 *136:A P[1] 2.25951e-05
4 *136:A P[3] 0
5 *136:A *13:12 5.92267e-05
*RES
1 A[1] *136:A 20.2479 
*END

*D_NET *3 0.000699525
*CONN
*P B[0] I
*I *137:A I *D sky130_fd_sc_hd__clkbuf_1
*CAP
1 B[0] 0.000321177
2 *137:A 0.000321177
3 *137:A *138:A 2.99915e-05
4 *135:A *137:A 2.71788e-05
*RES
1 B[0] *137:A 21.6946 
*END

*D_NET *4 0.000670164
*CONN
*P B[1] I
*I *138:A I *D sky130_fd_sc_hd__clkbuf_1
*CAP
1 B[1] 0.000305702
2 *138:A 0.000305702
3 *138:A P[3] 2.87684e-05
4 *138:A *13:12 0
5 *137:A *138:A 2.99915e-05
*RES
1 B[1] *138:A 21.391 
*END

*D_NET *5 0.000492366
*CONN
*P P[0] O
*I *139:X O *D sky130_fd_sc_hd__buf_2
*CAP
1 P[0] 0.000199745
2 *139:X 0.000199745
3 P[0] P[2] 9.28756e-05
*RES
1 *139:X P[0] 18.1949 
*END

*D_NET *6 0.000724586
*CONN
*P P[1] O
*I *140:X O *D sky130_fd_sc_hd__buf_2
*CAP
1 P[1] 0.000335026
2 *140:X 0.000335026
3 P[1] P[3] 3.19385e-05
4 *136:A P[1] 2.25951e-05
*RES
1 *140:X P[1] 20.891 
*END

*D_NET *7 0.000567153
*CONN
*P P[2] O
*I *141:X O *D sky130_fd_sc_hd__buf_2
*CAP
1 P[2] 0.000237139
2 *141:X 0.000237139
3 P[0] P[2] 9.28756e-05
*RES
1 *141:X P[2] 18.8021 
*END

*D_NET *8 0.00053307
*CONN
*P P[3] O
*I *142:X O *D sky130_fd_sc_hd__buf_2
*CAP
1 P[3] 0.000225873
2 *142:X 0.000225873
3 P[3] *13:12 2.06178e-05
4 P[1] P[3] 3.19385e-05
5 *136:A P[3] 0
6 *138:A P[3] 2.87684e-05
*RES
1 *142:X P[3] 18.1949 
*END

*D_NET *11 0.000630168
*CONN
*I *133:C I *D sky130_fd_sc_hd__and3_1
*I *130:Y O *D sky130_fd_sc_hd__nand2_1
*CAP
1 *133:C 0.000197282
2 *130:Y 0.000197282
3 *133:C *141:A 0.000139907
4 *133:C *19:10 9.56968e-05
*RES
1 *130:Y *133:C 31.8857 
*END

*D_NET *12 0.00159567
*CONN
*I *130:B I *D sky130_fd_sc_hd__nand2_1
*I *131:D I *D sky130_fd_sc_hd__and4_1
*I *135:X O *D sky130_fd_sc_hd__clkbuf_1
*CAP
1 *130:B 0.00014976
2 *131:D 0
3 *135:X 0.000565804
4 *12:12 0.000715564
5 *130:B *130:A 0.000164542
*RES
1 *135:X *12:12 25.9964 
2 *12:12 *131:D 9.3 
3 *12:12 *130:B 12.3357 
*END

*D_NET *13 0.00212306
*CONN
*I *133:B I *D sky130_fd_sc_hd__and3_1
*I *131:C I *D sky130_fd_sc_hd__and4_1
*I *136:X O *D sky130_fd_sc_hd__clkbuf_1
*CAP
1 *133:B 0
2 *131:C 0.000121352
3 *136:X 0.000848022
4 *13:12 0.000969374
5 *131:C *131:A 3.56976e-05
6 *131:C *19:10 2.56601e-05
7 *13:12 *131:A 1.40415e-05
8 *13:12 *140:A 0
9 *13:12 *15:8 2.90655e-05
10 P[3] *13:12 2.06178e-05
11 *136:A *13:12 5.92267e-05
12 *138:A *13:12 0
*RES
1 *136:X *13:12 31.9607 
2 *13:12 *131:C 20.55 
3 *13:12 *133:B 9.3 
*END

*D_NET *14 0.00099799
*CONN
*I *130:A I *D sky130_fd_sc_hd__nand2_1
*I *131:B I *D sky130_fd_sc_hd__and4_1
*I *137:X O *D sky130_fd_sc_hd__clkbuf_1
*CAP
1 *130:A 0.0001279
2 *131:B 0
3 *137:X 0.000288824
4 *14:6 0.000416724
5 *130:B *130:A 0.000164542
*RES
1 *137:X *14:6 12.7107 
2 *14:6 *131:B 9.3 
3 *14:6 *130:A 12.2107 
*END

*D_NET *15 0.000896817
*CONN
*I *133:A I *D sky130_fd_sc_hd__and3_1
*I *131:A I *D sky130_fd_sc_hd__and4_1
*I *138:X O *D sky130_fd_sc_hd__clkbuf_1
*CAP
1 *133:A 0
2 *131:A 0.000149405
3 *138:X 0.000259602
4 *15:8 0.000409006
5 *131:A *19:10 0
6 *131:C *131:A 3.56976e-05
7 *13:12 *131:A 1.40415e-05
8 *13:12 *15:8 2.90655e-05
*RES
1 *138:X *15:8 12.7286 
2 *15:8 *131:A 21.3893 
3 *15:8 *133:A 9.3 
*END

*D_NET *16 0.0025333
*CONN
*I *139:A I *D sky130_fd_sc_hd__buf_2
*I *134:X O *D sky130_fd_sc_hd__clkbuf_1
*CAP
1 *139:A 0.00126665
2 *134:X 0.00126665
*RES
1 *134:X *139:A 38.475 
*END

*D_NET *17 0.000637499
*CONN
*I *140:A I *D sky130_fd_sc_hd__buf_2
*I *132:Y O *D sky130_fd_sc_hd__inv_2
*CAP
1 *140:A 0.00031875
2 *132:Y 0.00031875
3 *13:12 *140:A 0
*RES
1 *132:Y *140:A 32.9571 
*END

*D_NET *18 0.00423061
*CONN
*I *141:A I *D sky130_fd_sc_hd__buf_2
*I *133:X O *D sky130_fd_sc_hd__and3_1
*CAP
1 *141:A 0.00204535
2 *133:X 0.00204535
3 *133:C *141:A 0.000139907
*RES
1 *133:X *141:A 44.6357 
*END

*D_NET *19 0.00169306
*CONN
*I *134:A I *D sky130_fd_sc_hd__clkbuf_1
*I *132:A I *D sky130_fd_sc_hd__inv_2
*I *142:A I *D sky130_fd_sc_hd__buf_2
*I *131:X O *D sky130_fd_sc_hd__and4_1
*CAP
1 *134:A 0.000300993
2 *132:A 0
3 *142:A 0.000227399
4 *131:X 0.000199668
5 *19:12 0.000285188
6 *19:10 0.00055845
7 *131:A *19:10 0
8 *131:C *19:10 2.56601e-05
9 *133:C *19:10 9.56968e-05
*RES
1 *131:X *19:10 22.3714 
2 *19:10 *19:12 0.946429 
3 *19:12 *142:A 13.1214 
4 *19:12 *132:A 9.3 
5 *19:10 *134:A 14.3536 
*END
