*SPEF "ieee 1481-1999"
*DESIGN "SARSA_RUIDO_VENTAJA_e5"
*DATE "11:29:36 Friday September 12, 2025"
*VENDOR "The OpenROAD Project"
*PROGRAM "OpenROAD"
*VERSION "edf00dff99f6c40d67a30c0e22a8191c5d2ed9d6"
*DESIGN_FLOW "NAME_SCOPE LOCAL" "PIN_CAP NONE"
*DIVIDER /
*DELIMITER :
*BUS_DELIMITER []
*T_UNIT 1 NS
*C_UNIT 1 PF
*R_UNIT 1 OHM
*L_UNIT 1 HENRY

*NAME_MAP
*1 A[0]
*2 A[1]
*3 B[0]
*4 B[1]
*5 P[0]
*6 P[1]
*7 P[2]
*8 P[3]
*11 _00_
*12 _01_
*13 _02_
*14 _03_
*15 net1
*16 net2
*17 net3
*18 net4
*19 net5
*20 net6
*21 net7
*22 net8
*23 FILLER_0_15
*24 FILLER_0_27
*25 FILLER_0_29
*26 FILLER_0_3
*27 FILLER_0_34
*28 FILLER_0_42
*29 FILLER_0_49
*30 FILLER_0_55
*31 FILLER_0_57
*32 FILLER_0_69
*33 FILLER_1_15
*34 FILLER_1_27
*35 FILLER_1_3
*36 FILLER_1_39
*37 FILLER_1_51
*38 FILLER_1_55
*39 FILLER_1_57
*40 FILLER_1_69
*41 FILLER_2_15
*42 FILLER_2_27
*43 FILLER_2_29
*44 FILLER_2_3
*45 FILLER_2_41
*46 FILLER_2_53
*47 FILLER_2_65
*48 FILLER_2_77
*49 FILLER_3_15
*50 FILLER_3_27
*51 FILLER_3_3
*52 FILLER_3_41
*53 FILLER_3_53
*54 FILLER_3_57
*55 FILLER_3_69
*56 FILLER_4_15
*57 FILLER_4_27
*58 FILLER_4_29
*59 FILLER_4_3
*60 FILLER_4_41
*61 FILLER_4_53
*62 FILLER_4_65
*63 FILLER_4_77
*64 FILLER_5_15
*65 FILLER_5_27
*66 FILLER_5_3
*67 FILLER_5_35
*68 FILLER_5_42
*69 FILLER_5_54
*70 FILLER_5_57
*71 FILLER_5_69
*72 FILLER_6_15
*73 FILLER_6_27
*74 FILLER_6_29
*75 FILLER_6_3
*76 FILLER_6_41
*77 FILLER_6_53
*78 FILLER_6_65
*79 FILLER_6_77
*80 FILLER_7_15
*81 FILLER_7_27
*82 FILLER_7_3
*83 FILLER_7_39
*84 FILLER_7_44
*85 FILLER_7_57
*86 FILLER_7_69
*87 FILLER_8_15
*88 FILLER_8_27
*89 FILLER_8_29
*90 FILLER_8_3
*91 FILLER_8_51
*92 FILLER_8_63
*93 FILLER_8_75
*94 FILLER_9_15
*95 FILLER_9_27
*96 FILLER_9_29
*97 FILLER_9_3
*98 FILLER_9_34
*99 FILLER_9_48
*100 FILLER_9_57
*101 FILLER_9_62
*102 FILLER_9_74
*103 FILLER_9_80
*104 PHY_EDGE_ROW_0_Left_10
*105 PHY_EDGE_ROW_0_Right_0
*106 PHY_EDGE_ROW_1_Left_11
*107 PHY_EDGE_ROW_1_Right_1
*108 PHY_EDGE_ROW_2_Left_12
*109 PHY_EDGE_ROW_2_Right_2
*110 PHY_EDGE_ROW_3_Left_13
*111 PHY_EDGE_ROW_3_Right_3
*112 PHY_EDGE_ROW_4_Left_14
*113 PHY_EDGE_ROW_4_Right_4
*114 PHY_EDGE_ROW_5_Left_15
*115 PHY_EDGE_ROW_5_Right_5
*116 PHY_EDGE_ROW_6_Left_16
*117 PHY_EDGE_ROW_6_Right_6
*118 PHY_EDGE_ROW_7_Left_17
*119 PHY_EDGE_ROW_7_Right_7
*120 PHY_EDGE_ROW_8_Left_18
*121 PHY_EDGE_ROW_8_Right_8
*122 PHY_EDGE_ROW_9_Left_19
*123 PHY_EDGE_ROW_9_Right_9
*124 TAP_TAPCELL_ROW_0_20
*125 TAP_TAPCELL_ROW_0_21
*126 TAP_TAPCELL_ROW_1_22
*127 TAP_TAPCELL_ROW_2_23
*128 TAP_TAPCELL_ROW_3_24
*129 TAP_TAPCELL_ROW_4_25
*130 TAP_TAPCELL_ROW_5_26
*131 TAP_TAPCELL_ROW_6_27
*132 TAP_TAPCELL_ROW_7_28
*133 TAP_TAPCELL_ROW_8_29
*134 TAP_TAPCELL_ROW_9_30
*135 TAP_TAPCELL_ROW_9_31
*136 _04_
*137 _05_
*138 _06_
*139 _07_
*140 _08_
*141 _09_
*142 _10_
*143 _11_
*144 input1
*145 input2
*146 input3
*147 input4
*148 output5
*149 output6
*150 output7
*151 output8

*PORTS
A[0] I
A[1] I
B[0] I
B[1] I
P[0] O
P[1] O
P[2] O
P[3] O

*D_NET *1 0.00106389
*CONN
*P A[0] I
*I *144:A I *D sky130_fd_sc_hd__buf_1
*CAP
1 A[0] 0.000531944
2 *144:A 0.000531944
3 *144:A P[3] 0
*RES
1 A[0] *144:A 49.6829 
*END

*D_NET *2 0.00107062
*CONN
*P A[1] I
*I *145:A I *D sky130_fd_sc_hd__clkbuf_1
*CAP
1 A[1] 0.000529586
2 *145:A 0.000529586
3 *145:A P[0] 0
4 *145:A P[3] 0
5 *145:A *22:21 1.14452e-05
*RES
1 A[1] *145:A 49.6829 
*END

*D_NET *3 0.000901682
*CONN
*P B[0] I
*I *146:A I *D sky130_fd_sc_hd__buf_1
*CAP
1 B[0] 0.000450841
2 *146:A 0.000450841
3 *146:A P[2] 0
*RES
1 B[0] *146:A 47.3214 
*END

*D_NET *4 0.000980411
*CONN
*P B[1] I
*I *147:A I *D sky130_fd_sc_hd__buf_1
*CAP
1 B[1] 0.000490205
2 *147:A 0.000490205
3 *147:A P[0] 0
4 *147:A *19:10 0
*RES
1 B[1] *147:A 48.73 
*END

*D_NET *5 0.000960449
*CONN
*P P[0] O
*I *148:X O *D sky130_fd_sc_hd__buf_2
*CAP
1 P[0] 0.000480224
2 *148:X 0.000480224
3 *145:A P[0] 0
4 *147:A P[0] 0
*RES
1 *148:X P[0] 48.5021 
*END

*D_NET *6 0.000993477
*CONN
*P P[1] O
*I *149:X O *D sky130_fd_sc_hd__buf_2
*CAP
1 P[1] 0.000496739
2 *149:X 0.000496739
3 P[1] P[2] 0
*RES
1 *149:X P[1] 47.86 
*END

*D_NET *7 0.001008
*CONN
*P P[2] O
*I *150:X O *D sky130_fd_sc_hd__buf_2
*CAP
1 P[2] 0.000496619
2 *150:X 0.000496619
3 P[2] *17:10 1.47645e-05
4 P[1] P[2] 0
5 *146:A P[2] 0
*RES
1 *150:X P[2] 47.57 
*END

*D_NET *8 0.00100219
*CONN
*P P[3] O
*I *151:X O *D sky130_fd_sc_hd__buf_2
*CAP
1 P[3] 0.000501094
2 *151:X 0.000501094
3 *144:A P[3] 0
4 *145:A P[3] 0
*RES
1 *151:X P[3] 48.9786 
*END

*D_NET *11 0.00189995
*CONN
*I *142:A1 I *D sky130_fd_sc_hd__a21oi_1
*I *143:B1_N I *D sky130_fd_sc_hd__a21boi_1
*I *137:X O *D sky130_fd_sc_hd__and2_1
*CAP
1 *142:A1 0
2 *143:B1_N 0.000202517
3 *137:X 0.000458305
4 *11:12 0.000660823
5 *143:B1_N *17:10 4.6318e-06
6 *143:B1_N *17:27 6.57551e-05
7 *143:B1_N *21:10 1.80852e-05
8 *11:12 *136:A 6.70389e-05
9 *11:12 *12:12 0.000253113
10 *11:12 *13:8 0.000169683
11 *11:12 *17:27 0
12 *11:12 *18:14 0
*RES
1 *137:X *11:12 49.8279 
2 *11:12 *143:B1_N 41.8321 
3 *11:12 *142:A1 38 
*END

*D_NET *12 0.00243281
*CONN
*I *142:B1 I *D sky130_fd_sc_hd__a21oi_1
*I *140:Y O *D sky130_fd_sc_hd__nor2_1
*CAP
1 *142:B1 0
2 *140:Y 0.00016102
3 *12:12 0.0005332
4 *12:8 0.00069422
5 *12:8 *140:A 4.96303e-05
6 *12:8 *16:16 5.56356e-05
7 *12:12 *136:A 0.000139647
8 *12:12 *13:8 0.000169683
9 *12:12 *16:16 2.25676e-05
10 *12:12 *17:27 0.00011263
11 *12:12 *18:14 5.93983e-05
12 *12:12 *18:16 9.70243e-05
13 *12:12 *19:10 8.50366e-05
14 *11:12 *12:12 0.000253113
*RES
1 *140:Y *12:8 40.0507 
2 *12:8 *12:12 28.5264 
3 *12:12 *142:B1 23 
*END

*D_NET *13 0.000595027
*CONN
*I *142:A2 I *D sky130_fd_sc_hd__a21oi_1
*I *141:Y O *D sky130_fd_sc_hd__nand2b_1
*CAP
1 *142:A2 7.74403e-05
2 *141:Y 5.03899e-05
3 *13:8 0.00012783
4 *11:12 *13:8 0.000169683
5 *12:12 *13:8 0.000169683
*RES
1 *141:Y *13:8 40.2579 
2 *13:8 *142:A2 39.0979 
*END

*D_NET *14 0.000904951
*CONN
*I *139:A2 I *D sky130_fd_sc_hd__a21o_1
*I *136:Y O *D sky130_fd_sc_hd__inv_2
*CAP
1 *139:A2 0
2 *136:Y 0.000433966
3 *14:10 0.000433966
4 *14:10 *15:10 3.70187e-05
5 *14:10 *15:25 0
*RES
1 *136:Y *14:10 43.8621 
2 *14:10 *139:A2 38 
*END

*D_NET *15 0.00516612
*CONN
*I *139:A1 I *D sky130_fd_sc_hd__a21o_1
*I *141:B I *D sky130_fd_sc_hd__nand2b_1
*I *143:A1 I *D sky130_fd_sc_hd__a21boi_1
*I *138:A I *D sky130_fd_sc_hd__and4_1
*I *144:X O *D sky130_fd_sc_hd__buf_1
*CAP
1 *139:A1 0
2 *141:B 0.000179705
3 *143:A1 0.000519438
4 *138:A 0.000130067
5 *144:X 0.000380132
6 *15:25 0.00103151
7 *15:14 0.000539609
8 *15:12 7.71743e-05
9 *15:10 0.000380132
10 *138:A *137:B 0.000183502
11 *138:A *138:B 5.3304e-05
12 *138:A *16:16 4.44329e-05
13 *138:A *17:46 0.000187214
14 *138:A *19:10 7.53303e-06
15 *138:A *22:6 0.000100061
16 *141:B *141:A_N 5.56279e-05
17 *141:B *17:46 0.000132064
18 *143:A1 *20:12 0.000192413
19 *15:10 *22:21 0.000276372
20 *15:14 *22:6 5.50106e-05
21 *15:14 *22:21 4.34745e-05
22 *15:25 *17:46 0.000560326
23 *14:10 *15:10 3.70187e-05
24 *14:10 *15:25 0
*RES
1 *144:X *15:10 45.8714 
2 *15:10 *15:12 15 
3 *15:12 *15:14 1.57429 
4 *15:14 *138:A 26.9564 
5 *15:14 *15:25 23.2443 
6 *15:25 *143:A1 46.2029 
7 *15:25 *141:B 41.6509 
8 *15:12 *139:A1 23 
*END

*D_NET *16 0.00134936
*CONN
*I *140:B I *D sky130_fd_sc_hd__nor2_1
*I *138:D I *D sky130_fd_sc_hd__and4_1
*I *137:B I *D sky130_fd_sc_hd__and2_1
*I *145:X O *D sky130_fd_sc_hd__clkbuf_1
*CAP
1 *140:B 3.34115e-05
2 *138:D 0
3 *137:B 0.000125749
4 *145:X 3.15222e-05
5 *16:16 0.000309719
6 *16:6 0.000248903
7 *137:B *137:A 0.000187968
8 *137:B *19:10 2.07484e-05
9 *140:B *140:A 1.8788e-05
10 *16:16 *19:10 6.64153e-05
11 *138:A *137:B 0.000183502
12 *138:A *16:16 4.44329e-05
13 *12:8 *16:16 5.56356e-05
14 *12:12 *16:16 2.25676e-05
*RES
1 *145:X *16:6 23.6214 
2 *16:6 *16:16 33.8529 
3 *16:16 *137:B 26.48 
4 *16:16 *138:D 23 
5 *16:6 *140:B 23.8493 
*END

*D_NET *17 0.00444271
*CONN
*I *138:C I *D sky130_fd_sc_hd__and4_1
*I *141:A_N I *D sky130_fd_sc_hd__nand2b_1
*I *143:A2 I *D sky130_fd_sc_hd__a21boi_1
*I *146:X O *D sky130_fd_sc_hd__buf_1
*CAP
1 *138:C 0
2 *141:A_N 2.98451e-05
3 *143:A2 0
4 *146:X 0.000603706
5 *17:46 0.000508895
6 *17:29 0.00053874
7 *17:27 0.000356325
8 *17:10 0.000960031
9 *17:10 *21:10 0.000260468
10 *17:27 *20:8 2.03495e-05
11 *17:27 *20:12 3.13404e-05
12 P[2] *17:10 1.47645e-05
13 *138:A *17:46 0.000187214
14 *141:B *141:A_N 5.56279e-05
15 *141:B *17:46 0.000132064
16 *143:B1_N *17:10 4.6318e-06
17 *143:B1_N *17:27 6.57551e-05
18 *11:12 *17:27 0
19 *12:12 *17:27 0.00011263
20 *15:25 *17:46 0.000560326
*RES
1 *146:X *17:10 49.3721 
2 *17:10 *143:A2 38 
3 *17:10 *17:27 37.0221 
4 *17:27 *17:29 15 
5 *17:29 *141:A_N 23.6214 
6 *17:29 *17:46 41.165 
7 *17:46 *138:C 23 
*END

*D_NET *18 0.00235234
*CONN
*I *140:A I *D sky130_fd_sc_hd__nor2_1
*I *137:A I *D sky130_fd_sc_hd__and2_1
*I *138:B I *D sky130_fd_sc_hd__and4_1
*I *136:A I *D sky130_fd_sc_hd__inv_2
*I *147:X O *D sky130_fd_sc_hd__buf_1
*CAP
1 *140:A 0.000131528
2 *137:A 0.000130241
3 *138:B 4.99221e-05
4 *136:A 0.000134842
5 *147:X 0.00017013
6 *18:16 0.000250116
7 *18:14 0.000344353
8 *18:8 0.000450418
9 *18:14 *19:10 1.7992e-05
10 *137:B *137:A 0.000187968
11 *138:A *138:B 5.3304e-05
12 *140:B *140:A 1.8788e-05
13 *11:12 *136:A 6.70389e-05
14 *11:12 *18:14 0
15 *12:8 *140:A 4.96303e-05
16 *12:12 *136:A 0.000139647
17 *12:12 *18:14 5.93983e-05
18 *12:12 *18:16 9.70243e-05
*RES
1 *147:X *18:8 26.0243 
2 *18:8 *18:14 18.0554 
3 *18:14 *18:16 1.3775 
4 *18:16 *136:A 41.0036 
5 *18:16 *138:B 38.6214 
6 *18:14 *137:A 41.0036 
7 *18:8 *140:A 25.5479 
*END

*D_NET *19 0.000712789
*CONN
*I *148:A I *D sky130_fd_sc_hd__buf_2
*I *139:X O *D sky130_fd_sc_hd__a21o_1
*CAP
1 *148:A 0
2 *139:X 0.000247158
3 *19:10 0.000247158
4 *19:10 *22:6 2.07484e-05
5 *137:B *19:10 2.07484e-05
6 *138:A *19:10 7.53303e-06
7 *147:A *19:10 0
8 *12:12 *19:10 8.50366e-05
9 *16:16 *19:10 6.64153e-05
10 *18:14 *19:10 1.7992e-05
*RES
1 *139:X *19:10 42.3086 
2 *19:10 *148:A 38 
*END

*D_NET *20 0.00177912
*CONN
*I *149:A I *D sky130_fd_sc_hd__buf_2
*I *142:Y O *D sky130_fd_sc_hd__a21oi_1
*CAP
1 *149:A 0
2 *142:Y 0.000170887
3 *20:12 0.00059662
4 *20:8 0.000767507
5 *20:12 *21:10 0
6 *143:A1 *20:12 0.000192413
7 *17:27 *20:8 2.03495e-05
8 *17:27 *20:12 3.13404e-05
*RES
1 *142:Y *20:8 40.5271 
2 *20:8 *20:12 27.1179 
3 *20:12 *149:A 23 
*END

*D_NET *21 0.0010526
*CONN
*I *150:A I *D sky130_fd_sc_hd__buf_2
*I *143:Y O *D sky130_fd_sc_hd__a21boi_1
*CAP
1 *150:A 0
2 *143:Y 0.000387024
3 *21:10 0.000387024
4 *143:B1_N *21:10 1.80852e-05
5 *17:10 *21:10 0.000260468
6 *20:12 *21:10 0
*RES
1 *143:Y *21:10 46.5136 
2 *21:10 *150:A 38 
*END

*D_NET *22 0.00115297
*CONN
*I *151:A I *D sky130_fd_sc_hd__buf_2
*I *139:B1 I *D sky130_fd_sc_hd__a21o_1
*I *138:X O *D sky130_fd_sc_hd__and4_1
*CAP
1 *151:A 0
2 *139:B1 0
3 *138:X 4.98076e-05
4 *22:21 0.000273122
5 *22:6 0.000322929
6 *138:A *22:6 0.000100061
7 *145:A *22:21 1.14452e-05
8 *15:10 *22:21 0.000276372
9 *15:14 *22:6 5.50106e-05
10 *15:14 *22:21 4.34745e-05
11 *19:10 *22:6 2.07484e-05
*RES
1 *138:X *22:6 24.5743 
2 *22:6 *139:B1 23 
3 *22:6 *22:21 35.9864 
4 *22:21 *151:A 23 
*END
