*SPEF "ieee 1481-1999"
*DESIGN "mult4_SarsaNStepsRuido_e9_SARSA_RUIDO_e9_SARSA_RUIDO_e9_SARSA_RUIDO_e9"
*DATE "14:33:08 Tuesday September 16, 2025"
*VENDOR "The OpenROAD Project"
*PROGRAM "OpenROAD"
*VERSION "edf00dff99f6c40d67a30c0e22a8191c5d2ed9d6"
*DESIGN_FLOW "NAME_SCOPE LOCAL" "PIN_CAP NONE"
*DIVIDER /
*DELIMITER :
*BUS_DELIMITER []
*T_UNIT 1 NS
*C_UNIT 1 PF
*R_UNIT 1 OHM
*L_UNIT 1 HENRY

*NAME_MAP
*1 A[0]
*2 A[1]
*3 A[2]
*4 A[3]
*5 B[0]
*6 B[1]
*7 B[2]
*8 B[3]
*9 net16
*10 P[1]
*11 P[2]
*12 P[3]
*13 P[4]
*14 P[5]
*15 P[6]
*16 P[7]
*19 _00_
*20 _01_
*21 _02_
*22 _03_
*23 _04_
*24 _05_
*25 _06_
*26 _07_
*27 _08_
*28 _09_
*29 _10_
*30 _11_
*31 _12_
*32 _13_
*33 _14_
*34 _15_
*35 _16_
*36 _17_
*37 _18_
*38 _19_
*39 _20_
*40 _21_
*41 _22_
*42 _23_
*43 _24_
*44 _25_
*45 _26_
*46 _27_
*47 _28_
*48 _29_
*49 _30_
*50 _31_
*51 _32_
*52 _33_
*53 _34_
*54 _35_
*55 _36_
*56 net1
*57 net10
*58 net11
*59 net12
*60 net13
*61 net14
*62 net15
*63 net2
*64 net3
*65 net4
*66 net5
*67 net6
*68 net7
*69 net8
*70 net9
*71 FILLER_0_15
*72 FILLER_0_21
*73 FILLER_0_27
*74 FILLER_0_29
*75 FILLER_0_3
*76 FILLER_0_61
*77 FILLER_0_73
*78 FILLER_1_15
*79 FILLER_1_3
*80 FILLER_1_57
*81 FILLER_1_66
*82 FILLER_2_11
*83 FILLER_2_25
*84 FILLER_2_3
*85 FILLER_2_49
*86 FILLER_2_58
*87 FILLER_2_65
*88 FILLER_2_70
*89 FILLER_2_76
*90 FILLER_3_3
*91 FILLER_3_33
*92 FILLER_3_45
*93 FILLER_3_53
*94 FILLER_3_57
*95 FILLER_3_69
*96 FILLER_4_18
*97 FILLER_4_26
*98 FILLER_4_29
*99 FILLER_4_33
*100 FILLER_4_37
*101 FILLER_4_46
*102 FILLER_4_6
*103 FILLER_4_65
*104 FILLER_4_77
*105 FILLER_5_11
*106 FILLER_5_20
*107 FILLER_5_32
*108 FILLER_5_44
*109 FILLER_5_57
*110 FILLER_5_7
*111 FILLER_5_70
*112 FILLER_5_78
*113 FILLER_6_21
*114 FILLER_6_27
*115 FILLER_6_29
*116 FILLER_6_41
*117 FILLER_6_46
*118 FILLER_6_55
*119 FILLER_6_7
*120 FILLER_6_70
*121 FILLER_6_76
*122 FILLER_7_26
*123 FILLER_7_34
*124 FILLER_7_55
*125 FILLER_7_7
*126 FILLER_7_72
*127 FILLER_7_76
*128 FILLER_8_15
*129 FILLER_8_27
*130 FILLER_8_29
*131 FILLER_8_3
*132 FILLER_8_41
*133 FILLER_8_54
*134 FILLER_8_66
*135 FILLER_8_7
*136 FILLER_8_78
*137 FILLER_9_19
*138 FILLER_9_27
*139 FILLER_9_29
*140 FILLER_9_41
*141 FILLER_9_53
*142 FILLER_9_57
*143 FILLER_9_63
*144 FILLER_9_7
*145 FILLER_9_75
*146 PHY_EDGE_ROW_0_Left_10
*147 PHY_EDGE_ROW_0_Right_0
*148 PHY_EDGE_ROW_1_Left_11
*149 PHY_EDGE_ROW_1_Right_1
*150 PHY_EDGE_ROW_2_Left_12
*151 PHY_EDGE_ROW_2_Right_2
*152 PHY_EDGE_ROW_3_Left_13
*153 PHY_EDGE_ROW_3_Right_3
*154 PHY_EDGE_ROW_4_Left_14
*155 PHY_EDGE_ROW_4_Right_4
*156 PHY_EDGE_ROW_5_Left_15
*157 PHY_EDGE_ROW_5_Right_5
*158 PHY_EDGE_ROW_6_Left_16
*159 PHY_EDGE_ROW_6_Right_6
*160 PHY_EDGE_ROW_7_Left_17
*161 PHY_EDGE_ROW_7_Right_7
*162 PHY_EDGE_ROW_8_Left_18
*163 PHY_EDGE_ROW_8_Right_8
*164 PHY_EDGE_ROW_9_Left_19
*165 PHY_EDGE_ROW_9_Right_9
*166 TAP_TAPCELL_ROW_0_20
*167 TAP_TAPCELL_ROW_0_21
*168 TAP_TAPCELL_ROW_1_22
*169 TAP_TAPCELL_ROW_2_23
*170 TAP_TAPCELL_ROW_3_24
*171 TAP_TAPCELL_ROW_4_25
*172 TAP_TAPCELL_ROW_5_26
*173 TAP_TAPCELL_ROW_6_27
*174 TAP_TAPCELL_ROW_7_28
*175 TAP_TAPCELL_ROW_8_29
*176 TAP_TAPCELL_ROW_9_30
*177 TAP_TAPCELL_ROW_9_31
*178 _37_
*179 _38_
*180 _39_
*181 _40_
*182 _41_
*183 _42_
*184 _43_
*185 _44_
*186 _45_
*187 _46_
*188 _47_
*189 _48_
*190 _49_
*191 _50_
*192 _51_
*193 _52_
*194 _53_
*195 _54_
*196 _55_
*197 _56_
*198 _57_
*199 _58_
*200 _59_
*201 _60_
*202 _61_
*203 _62_
*204 _63_
*205 _64_
*206 _65_
*207 _66_
*208 _67_
*209 _68_
*210 _69_
*211 _70_
*212 _71_
*213 _72_
*214 _73_
*215 _74_
*216 _75_
*217 _76_
*218 _77_
*219 _78_
*220 _79_
*221 _80_
*222 input1
*223 input2
*224 input3
*225 input4
*226 input5
*227 input6
*228 input7
*229 input8
*230 mult4_SarsaNStepsRuido_e9_SARSA_RUIDO_e9_SARSA_RUIDO_e9_SARSA_RUIDO_e9_16
*231 output10
*232 output11
*233 output12
*234 output13
*235 output14
*236 output15
*237 output9

*PORTS
A[0] I
A[1] I
A[2] I
A[3] I
B[0] I
B[1] I
B[2] I
B[3] I
P[0] O
P[1] O
P[2] O
P[3] O
P[4] O
P[5] O
P[6] O
P[7] O

*D_NET *1 0.000910747
*CONN
*P A[0] I
*I *222:A I *D sky130_fd_sc_hd__clkbuf_2
*CAP
1 A[0] 0.000410423
2 *222:A 0.000410423
3 *222:A P[1] 0
4 *222:A *184:B1 5.30673e-05
5 *222:A *226:A 7.00889e-06
6 *222:A *56:8 1.12578e-05
7 *222:A *66:10 1.85674e-05
*RES
1 A[0] *222:A 10.89 
*END

*D_NET *2 0.000786235
*CONN
*P A[1] I
*I *223:A I *D sky130_fd_sc_hd__dlymetal6s2s_1
*CAP
1 A[1] 0.000393118
2 *223:A 0.000393118
3 *223:A *226:A 0
4 *223:A *228:A 0
*RES
1 A[1] *223:A 10.35 
*END

*D_NET *3 0.000543799
*CONN
*P A[2] I
*I *224:A I *D sky130_fd_sc_hd__clkbuf_2
*CAP
1 A[2] 0.000221247
2 *224:A 0.000221247
3 *224:A P[6] 0
4 *224:A P[7] 3.14094e-05
5 *224:A *229:A 2.85068e-05
6 *224:A *65:34 4.13879e-05
*RES
1 A[2] *224:A 5.16003 
*END

*D_NET *4 0.000641155
*CONN
*P A[3] I
*I *225:A I *D sky130_fd_sc_hd__buf_1
*CAP
1 A[3] 0.000305759
2 *225:A 0.000305759
3 *225:A *229:A 2.96366e-05
4 *225:A *65:12 0
*RES
1 A[3] *225:A 7.8543 
*END

*D_NET *5 0.00186143
*CONN
*P B[0] I
*I *226:A I *D sky130_fd_sc_hd__clkbuf_1
*CAP
1 B[0] 0.000573318
2 *226:A 0.000573318
3 *226:A P[1] 0
4 *226:A *179:A1 0.000121027
5 *226:A *179:A2 8.52883e-05
6 *226:A *56:8 0.000188957
7 *226:A *56:12 0.000121547
8 *226:A *63:6 8.49205e-05
9 *226:A *63:10 1.42807e-05
10 *226:A *66:10 9.17616e-05
11 *222:A *226:A 7.00889e-06
12 *223:A *226:A 0
*RES
1 B[0] *226:A 15.45 
*END

*D_NET *6 0.000812724
*CONN
*P B[1] I
*I *227:A I *D sky130_fd_sc_hd__clkbuf_2
*CAP
1 B[1] 0.000406362
2 *227:A 0.000406362
3 *227:A *228:A 0
*RES
1 B[1] *227:A 10.44 
*END

*D_NET *7 0.000789463
*CONN
*P B[2] I
*I *228:A I *D sky130_fd_sc_hd__buf_1
*CAP
1 B[2] 0.000394732
2 *228:A 0.000394732
3 *223:A *228:A 0
4 *227:A *228:A 0
*RES
1 B[2] *228:A 10.35 
*END

*D_NET *8 0.000669018
*CONN
*P B[3] I
*I *229:A I *D sky130_fd_sc_hd__clkbuf_2
*CAP
1 B[3] 0.000305437
2 *229:A 0.000305437
3 *229:A *65:34 0
4 *224:A *229:A 2.85068e-05
5 *225:A *229:A 2.96366e-05
*RES
1 B[3] *229:A 7.9443 
*END

*D_NET *9 0.000423734
*CONN
*P P[0] O
*I *230:LO O *D sky130_fd_sc_hd__conb_1
*CAP
1 P[0] 0.000173345
2 *230:LO 0.000173345
3 P[0] P[2] 7.70436e-05
*RES
1 *230:LO P[0] 4.84677 
*END

*D_NET *10 0.000829385
*CONN
*P P[1] O
*I *237:X O *D sky130_fd_sc_hd__buf_2
*CAP
1 P[1] 0.000390546
2 *237:X 0.000390546
3 P[1] *66:10 4.82919e-05
4 *222:A P[1] 0
5 *226:A P[1] 0
*RES
1 *237:X P[1] 10.395 
*END

*D_NET *11 0.000506348
*CONN
*P P[2] O
*I *231:X O *D sky130_fd_sc_hd__buf_2
*CAP
1 P[2] 0.000214652
2 *231:X 0.000214652
3 P[0] P[2] 7.70436e-05
*RES
1 *231:X P[2] 5.16003 
*END

*D_NET *12 0.000468687
*CONN
*P P[3] O
*I *232:X O *D sky130_fd_sc_hd__buf_2
*CAP
1 P[3] 0.000192024
2 *232:X 0.000192024
3 P[3] P[4] 8.4638e-05
4 P[3] *220:B 0
*RES
1 *232:X P[3] 4.90503 
*END

*D_NET *13 0.000460569
*CONN
*P P[4] O
*I *233:X O *D sky130_fd_sc_hd__buf_2
*CAP
1 P[4] 0.000187966
2 *233:X 0.000187966
3 P[3] P[4] 8.4638e-05
*RES
1 *233:X P[4] 4.90503 
*END

*D_NET *14 0.000894056
*CONN
*P P[5] O
*I *234:X O *D sky130_fd_sc_hd__buf_2
*CAP
1 P[5] 0.000447028
2 *234:X 0.000447028
*RES
1 *234:X P[5] 11.55 
*END

*D_NET *15 0.00059279
*CONN
*P P[6] O
*I *235:X O *D sky130_fd_sc_hd__buf_2
*CAP
1 P[6] 0.00028515
2 *235:X 0.00028515
3 P[6] P[7] 2.24901e-05
4 P[6] *235:A 0
5 *224:A P[6] 0
*RES
1 *235:X P[6] 5.92503 
*END

*D_NET *16 0.000660243
*CONN
*P P[7] O
*I *236:X O *D sky130_fd_sc_hd__buf_2
*CAP
1 P[7] 0.000303172
2 *236:X 0.000303172
3 P[6] P[7] 2.24901e-05
4 *224:A P[7] 3.14094e-05
*RES
1 *236:X P[7] 7.1793 
*END

*D_NET *19 0.00178089
*CONN
*I *183:A I *D sky130_fd_sc_hd__and3_1
*I *197:A1 I *D sky130_fd_sc_hd__a21bo_1
*I *184:B1 I *D sky130_fd_sc_hd__a21oi_1
*I *180:A I *D sky130_fd_sc_hd__nor2_1
*I *178:X O *D sky130_fd_sc_hd__and3_1
*CAP
1 *183:A 0
2 *197:A1 0.000167778
3 *184:B1 0.000417948
4 *180:A 9.44907e-06
5 *178:X 8.02431e-05
6 *19:19 0.000585727
7 *19:17 2.65757e-05
8 *19:8 0.000116268
9 *180:A *22:22 2.25728e-05
10 *184:B1 *180:B 6.43329e-05
11 *184:B1 *184:A2 0
12 *184:B1 *56:8 4.82919e-05
13 *184:B1 *56:40 0
14 *197:A1 *197:A2 4.99619e-05
15 *197:A1 *197:B1_N 0
16 *197:A1 *25:14 2.0514e-05
17 *197:A1 *56:40 0
18 *19:8 *178:C 0
19 *19:8 *180:B 4.82863e-05
20 *19:8 *22:22 4.93698e-05
21 *19:17 *22:22 2.05056e-05
22 *222:A *184:B1 5.30673e-05
*RES
1 *178:X *19:8 3.1 
2 *19:8 *180:A 1.96 
3 *19:8 *19:17 0.45 
4 *19:17 *19:19 2 
5 *19:19 *184:B1 9.78 
6 *19:19 *197:A1 6.285 
7 *19:17 *183:A 1.6 
*END

*D_NET *20 0.000885754
*CONN
*I *180:B I *D sky130_fd_sc_hd__nor2_1
*I *179:Y O *D sky130_fd_sc_hd__a21oi_1
*CAP
1 *180:B 0.000210588
2 *179:Y 0.000210588
3 *180:B *237:A 7.23602e-05
4 *180:B *22:22 4.82863e-05
5 *180:B *56:8 0.000122337
6 *180:B *56:12 8.35068e-05
7 *180:B *56:40 2.54692e-05
8 *184:B1 *180:B 6.43329e-05
9 *19:8 *180:B 4.82863e-05
*RES
1 *179:Y *180:B 11.115 
*END

*D_NET *21 0.00237332
*CONN
*I *197:A2 I *D sky130_fd_sc_hd__a21bo_1
*I *184:A1 I *D sky130_fd_sc_hd__a21oi_1
*I *183:B I *D sky130_fd_sc_hd__and3_1
*I *181:X O *D sky130_fd_sc_hd__a22o_1
*CAP
1 *197:A2 0.000174695
2 *184:A1 7.15699e-05
3 *183:B 0
4 *181:X 0.000247224
5 *21:17 0.000396058
6 *21:8 0.000397017
7 *184:A1 *184:A2 0.000139238
8 *184:A1 *24:12 2.88243e-05
9 *197:A2 *184:A2 8.99646e-05
10 *197:A2 *186:A 4.5783e-05
11 *197:A2 *187:A1 3.05295e-05
12 *197:A2 *197:B1_N 9.30787e-05
13 *197:A2 *24:12 0
14 *197:A2 *25:14 0.000239807
15 *21:8 *22:22 0.000316095
16 *21:17 *22:22 2.31814e-06
17 *21:17 *22:31 4.8002e-05
18 *21:17 *23:8 3.1562e-06
19 *197:A1 *197:A2 4.99619e-05
*RES
1 *181:X *21:8 5.86 
2 *21:8 *183:B 1.6 
3 *21:8 *21:17 3.83 
4 *21:17 *184:A1 5.235 
5 *21:17 *197:A2 8.43 
*END

*D_NET *22 0.00302561
*CONN
*I *197:B1_N I *D sky130_fd_sc_hd__a21bo_1
*I *184:A2 I *D sky130_fd_sc_hd__a21oi_1
*I *183:C I *D sky130_fd_sc_hd__and3_1
*I *182:Y O *D sky130_fd_sc_hd__nand4_1
*CAP
1 *197:B1_N 4.90457e-05
2 *184:A2 0.000120377
3 *183:C 0
4 *182:Y 0.000527777
5 *22:31 0.000223319
6 *22:22 0.000581674
7 *184:A2 *237:A 0
8 *22:22 *178:C 0.000126437
9 *22:22 *181:B1 2.83579e-05
10 *22:22 *35:14 0.000122199
11 *22:22 *56:54 0.000123333
12 *22:22 *67:40 0.000200992
13 *22:22 *67:55 6.07575e-06
14 *22:31 *23:8 8.65905e-05
15 *180:A *22:22 2.25728e-05
16 *180:B *22:22 4.82863e-05
17 *184:A1 *184:A2 0.000139238
18 *184:B1 *184:A2 0
19 *197:A1 *197:B1_N 0
20 *197:A2 *184:A2 8.99646e-05
21 *197:A2 *197:B1_N 9.30787e-05
22 *19:8 *22:22 4.93698e-05
23 *19:17 *22:22 2.05056e-05
24 *21:8 *22:22 0.000316095
25 *21:17 *22:22 2.31814e-06
26 *21:17 *22:31 4.8002e-05
*RES
1 *182:Y *22:22 13.105 
2 *22:22 *183:C 1.6 
3 *22:22 *22:31 3.425 
4 *22:31 *184:A2 6.255 
5 *22:31 *197:B1_N 4.725 
*END

*D_NET *23 0.000793607
*CONN
*I *186:A I *D sky130_fd_sc_hd__nor3_1
*I *187:A1 I *D sky130_fd_sc_hd__o21a_1
*I *183:X O *D sky130_fd_sc_hd__and3_1
*CAP
1 *186:A 7.46551e-05
2 *187:A1 1.52789e-05
3 *183:X 0.00016065
4 *23:8 0.000250584
5 *186:A *186:B 4.75576e-05
6 *186:A *25:14 4.82919e-05
7 *187:A1 *186:B 2.4997e-05
8 *187:A1 *24:12 5.53249e-06
9 *197:A2 *186:A 4.5783e-05
10 *197:A2 *187:A1 3.05295e-05
11 *21:17 *23:8 3.1562e-06
12 *22:31 *23:8 8.65905e-05
*RES
1 *183:X *23:8 5.43 
2 *23:8 *187:A1 4.215 
3 *23:8 *186:A 5.175 
*END

*D_NET *24 0.000861006
*CONN
*I *186:B I *D sky130_fd_sc_hd__nor3_1
*I *187:A2 I *D sky130_fd_sc_hd__o21a_1
*I *184:Y O *D sky130_fd_sc_hd__a21oi_1
*CAP
1 *186:B 9.32557e-05
2 *187:A2 3.17377e-05
3 *184:Y 0.000165257
4 *24:12 0.00029025
5 *186:B *186:C 5.83121e-06
6 *186:B *187:B1 0.000116853
7 *186:B *188:B 1.73877e-05
8 *186:B *25:14 2.49909e-05
9 *24:12 *187:B1 8.53113e-06
10 *184:A1 *24:12 2.88243e-05
11 *186:A *186:B 4.75576e-05
12 *187:A1 *186:B 2.4997e-05
13 *187:A1 *24:12 5.53249e-06
14 *197:A2 *24:12 0
*RES
1 *184:Y *24:12 6.135 
2 *24:12 *187:A2 4.05 
3 *24:12 *186:B 5.94 
*END

*D_NET *25 0.00156201
*CONN
*I *186:C I *D sky130_fd_sc_hd__nor3_1
*I *187:B1 I *D sky130_fd_sc_hd__o21a_1
*I *185:Y O *D sky130_fd_sc_hd__nand2_1
*CAP
1 *186:C 5.87123e-05
2 *187:B1 4.83835e-05
3 *185:Y 0.000400423
4 *25:14 0.000507519
5 *186:C *188:A 0
6 *186:C *26:8 4.9253e-06
7 *187:B1 *188:B 3.86529e-05
8 *25:14 *185:A 2.11921e-05
9 *25:14 *195:A 0
10 *25:14 *36:12 1.7386e-05
11 *186:A *25:14 4.82919e-05
12 *186:B *186:C 5.83121e-06
13 *186:B *187:B1 0.000116853
14 *186:B *25:14 2.49909e-05
15 *197:A1 *25:14 2.0514e-05
16 *197:A2 *25:14 0.000239807
17 *24:12 *187:B1 8.53113e-06
*RES
1 *185:Y *25:14 7.81 
2 *25:14 *187:B1 6.98 
3 *25:14 *186:C 2.665 
*END

*D_NET *26 0.00152471
*CONN
*I *188:A I *D sky130_fd_sc_hd__nor2_1
*I *219:B1 I *D sky130_fd_sc_hd__a21oi_1
*I *203:A I *D sky130_fd_sc_hd__and3_1
*I *186:Y O *D sky130_fd_sc_hd__nor3_1
*CAP
1 *188:A 3.83237e-05
2 *219:B1 3.19301e-05
3 *203:A 8.2138e-05
4 *186:Y 9.94989e-05
5 *26:14 0.000495491
6 *26:8 0.000519246
7 *188:A *231:A 2.30292e-05
8 *203:A *203:C 0
9 *203:A *219:A1 3.25635e-05
10 *203:A *219:A2 4.99619e-05
11 *26:8 *188:B 8.65961e-05
12 *26:8 *231:A 7.00889e-06
13 *26:14 *213:A2_N 0
14 *26:14 *220:B 5.39961e-05
15 *26:14 *41:12 0
16 *186:C *188:A 0
17 *186:C *26:8 4.9253e-06
*RES
1 *186:Y *26:8 3.445 
2 *26:8 *26:14 10.225 
3 *26:14 *203:A 3.1 
4 *26:14 *219:B1 2.05 
5 *26:8 *188:A 2.41 
*END

*D_NET *27 0.000383984
*CONN
*I *188:B I *D sky130_fd_sc_hd__nor2_1
*I *187:X O *D sky130_fd_sc_hd__o21a_1
*CAP
1 *188:B 0.000120673
2 *187:X 0.000120673
3 *186:B *188:B 1.73877e-05
4 *187:B1 *188:B 3.86529e-05
5 *26:8 *188:B 8.65961e-05
*RES
1 *187:X *188:B 9.375 
*END

*D_NET *28 0.00190847
*CONN
*I *206:A1 I *D sky130_fd_sc_hd__a21bo_1
*I *192:A I *D sky130_fd_sc_hd__nand3_1
*I *193:B1 I *D sky130_fd_sc_hd__a21o_1
*I *189:X O *D sky130_fd_sc_hd__and2_1
*CAP
1 *206:A1 0
2 *192:A 9.00943e-05
3 *193:B1 0
4 *189:X 0.000254366
5 *28:18 0.000248638
6 *28:12 0.00041291
7 *192:A *192:B 0.000179926
8 *192:A *192:C 0.00012657
9 *192:A *31:12 4.6368e-06
10 *192:A *32:12 8.70076e-06
11 *28:12 *189:B 1.08194e-05
12 *28:12 *190:C 0
13 *28:12 *191:B2 4.14369e-05
14 *28:12 *64:29 5.19393e-05
15 *28:12 *67:8 7.06865e-05
16 *28:12 *69:25 0
17 *28:18 *192:B 0.000193324
18 *28:18 *192:C 2.7441e-05
19 *28:18 *193:A1 0.000102594
20 *28:18 *206:A2 8.43862e-05
*RES
1 *189:X *28:12 9.47 
2 *28:12 *28:18 3.84 
3 *28:18 *193:B1 1.6 
4 *28:18 *192:A 4.6 
5 *28:12 *206:A1 1.6 
*END

*D_NET *29 0.00197867
*CONN
*I *193:A1 I *D sky130_fd_sc_hd__a21o_1
*I *206:B1_N I *D sky130_fd_sc_hd__a21bo_1
*I *192:B I *D sky130_fd_sc_hd__nand3_1
*I *190:Y O *D sky130_fd_sc_hd__nand4_1
*CAP
1 *193:A1 3.34949e-05
2 *206:B1_N 0
3 *192:B 0.000204729
4 *190:Y 0.000184568
5 *29:29 4.85621e-05
6 *29:10 0.000404364
7 *192:B *32:12 7.60965e-05
8 *193:A1 *192:C 3.1226e-05
9 *193:A1 *206:A2 4.66108e-05
10 *29:10 *30:12 7.06865e-05
11 *29:10 *64:29 7.23602e-05
12 *29:10 *69:40 0.000236355
13 *29:29 *30:12 4.9968e-05
14 *29:29 *64:29 4.38051e-05
15 *192:A *192:B 0.000179926
16 *28:18 *192:B 0.000193324
17 *28:18 *193:A1 0.000102594
*RES
1 *190:Y *29:10 6.645 
2 *29:10 *192:B 7.89 
3 *29:10 *29:29 2.615 
4 *29:29 *206:B1_N 1.6 
5 *29:29 *193:A1 2.755 
*END

*D_NET *30 0.00122307
*CONN
*I *192:C I *D sky130_fd_sc_hd__nand3_1
*I *193:A2 I *D sky130_fd_sc_hd__a21o_1
*I *206:A2 I *D sky130_fd_sc_hd__a21bo_1
*I *191:X O *D sky130_fd_sc_hd__a22o_1
*CAP
1 *192:C 0.000130211
2 *193:A2 0
3 *206:A2 0.000116114
4 *191:X 0.000127222
5 *30:12 0.000373547
6 *30:12 *64:29 1.1561e-05
7 *30:12 *64:46 2.75229e-05
8 *192:A *192:C 0.00012657
9 *193:A1 *192:C 3.1226e-05
10 *193:A1 *206:A2 4.66108e-05
11 *28:18 *192:C 2.7441e-05
12 *28:18 *206:A2 8.43862e-05
13 *29:10 *30:12 7.06865e-05
14 *29:29 *30:12 4.9968e-05
*RES
1 *191:X *30:12 7.685 
2 *30:12 *206:A2 3.775 
3 *30:12 *193:A2 1.6 
4 *30:12 *192:C 4.135 
*END

*D_NET *31 0.000891817
*CONN
*I *200:B2 I *D sky130_fd_sc_hd__a32oi_1
*I *194:A I *D sky130_fd_sc_hd__nand2_1
*I *192:Y O *D sky130_fd_sc_hd__nand3_1
*CAP
1 *200:B2 4.15337e-05
2 *194:A 0
3 *192:Y 0.000167867
4 *31:12 0.0002094
5 *200:B2 *200:B1 0.00012411
6 *200:B2 *35:14 4.82919e-05
7 *31:12 *32:12 0.000196879
8 *31:12 *35:14 9.90987e-05
9 *192:A *31:12 4.6368e-06
*RES
1 *192:Y *31:12 9.485 
2 *31:12 *194:A 1.6 
3 *31:12 *200:B2 2.74 
*END

*D_NET *32 0.00139313
*CONN
*I *200:B1 I *D sky130_fd_sc_hd__a32oi_1
*I *194:B I *D sky130_fd_sc_hd__nand2_1
*I *193:X O *D sky130_fd_sc_hd__a21o_1
*CAP
1 *200:B1 0.000117092
2 *194:B 0
3 *193:X 0.000295242
4 *32:12 0.000412334
5 *200:B1 *201:A2_N 4.77757e-05
6 *200:B1 *33:10 7.33728e-05
7 *200:B1 *35:14 4.1527e-05
8 *32:12 *35:14 0
9 *192:A *32:12 8.70076e-06
10 *192:B *32:12 7.60965e-05
11 *200:B2 *200:B1 0.00012411
12 *31:12 *32:12 0.000196879
*RES
1 *193:X *32:12 10.43 
2 *32:12 *194:B 1.6 
3 *32:12 *200:B1 4.48 
*END

*D_NET *33 0.00325269
*CONN
*I *209:A1 I *D sky130_fd_sc_hd__o21ai_1
*I *211:A I *D sky130_fd_sc_hd__or3_1
*I *213:A1_N I *D sky130_fd_sc_hd__a2bb2o_1
*I *201:B2 I *D sky130_fd_sc_hd__o2bb2a_1
*I *210:A I *D sky130_fd_sc_hd__nor3_1
*I *194:Y O *D sky130_fd_sc_hd__nand2_1
*CAP
1 *209:A1 6.70753e-05
2 *211:A 6.39654e-05
3 *213:A1_N 0.000254232
4 *201:B2 0
5 *210:A 0
6 *194:Y 0.000228351
7 *33:45 0.000230737
8 *33:23 0.000438286
9 *33:14 0.000335147
10 *33:10 0.000479141
11 *209:A1 *209:A2 1.39188e-05
12 *209:A1 *46:12 3.09233e-05
13 *209:A1 *54:6 4.88478e-05
14 *211:A *209:A2 8.23457e-05
15 *211:A *211:C 5.69152e-05
16 *211:A *47:8 1.52352e-05
17 *211:A *54:6 6.07575e-06
18 *213:A1_N *213:A2_N 0.000162325
19 *213:A1_N *217:B1 0
20 *33:10 *34:58 0.000152405
21 *33:14 *201:A1_N 8.64421e-05
22 *33:14 *210:C 6.35284e-05
23 *33:14 *34:62 1.05984e-05
24 *33:14 *46:6 2.75229e-05
25 *33:23 *201:A1_N 0.000139795
26 *33:23 *217:B1 1.33293e-05
27 *33:23 *40:10 1.03783e-05
28 *33:45 *34:58 2.42236e-05
29 *33:45 *46:12 0.000137571
30 *200:B1 *33:10 7.33728e-05
*RES
1 *194:Y *33:10 7.905 
2 *33:10 *33:14 4.52 
3 *33:14 *210:A 1.6 
4 *33:14 *33:23 3.225 
5 *33:23 *201:B2 1.6 
6 *33:23 *213:A1_N 10.025 
7 *33:10 *33:45 2.145 
8 *33:45 *211:A 5.1 
9 *33:45 *209:A1 5.01 
*END

*D_NET *34 0.00479519
*CONN
*I *211:B I *D sky130_fd_sc_hd__or3_1
*I *209:A2 I *D sky130_fd_sc_hd__o21ai_1
*I *210:B I *D sky130_fd_sc_hd__nor3_1
*I *201:A1_N I *D sky130_fd_sc_hd__o2bb2a_1
*I *200:A1 I *D sky130_fd_sc_hd__a32oi_1
*I *198:A I *D sky130_fd_sc_hd__nand3_1
*I *199:B1_N I *D sky130_fd_sc_hd__a21boi_1
*I *202:A1 I *D sky130_fd_sc_hd__a21o_1
*I *195:Y O *D sky130_fd_sc_hd__nand4_4
*CAP
1 *211:B 0
2 *209:A2 9.45695e-05
3 *210:B 0
4 *201:A1_N 6.91901e-05
5 *200:A1 5.90908e-05
6 *198:A 4.33087e-05
7 *199:B1_N 0.000298655
8 *202:A1 0
9 *195:Y 0.0001533
10 *34:80 0.00014734
11 *34:62 0.000130786
12 *34:58 0.000379735
13 *34:47 0.00037008
14 *34:22 0.000356127
15 *34:18 0.000552221
16 *34:10 0.000650361
17 *198:A *36:12 9.3062e-06
18 *199:B1_N *199:A1 0.000241483
19 *199:B1_N *201:B1 1.0124e-05
20 *200:A1 *35:14 8.4841e-05
21 *201:A1_N *210:C 3.13354e-05
22 *201:A1_N *217:B1 4.69853e-05
23 *201:A1_N *40:10 3.82986e-05
24 *34:10 *185:B 5.06989e-05
25 *34:10 *35:14 0.000107716
26 *34:18 *36:12 2.46089e-05
27 *34:22 *199:A1 3.83041e-05
28 *34:22 *35:27 4.82919e-05
29 *34:47 *35:14 3.50033e-05
30 *34:58 *35:14 1.1561e-05
31 *34:58 *46:12 3.09233e-05
32 *34:62 *210:C 8.52883e-05
33 *34:80 *46:12 8.59296e-05
34 *209:A1 *209:A2 1.39188e-05
35 *211:A *209:A2 8.23457e-05
36 *33:10 *34:58 0.000152405
37 *33:14 *201:A1_N 8.64421e-05
38 *33:14 *34:62 1.05984e-05
39 *33:23 *201:A1_N 0.000139795
40 *33:45 *34:58 2.42236e-05
*RES
1 *195:Y *34:10 6.54 
2 *34:10 *34:18 9.115 
3 *34:18 *34:22 2.795 
4 *34:22 *202:A1 1.6 
5 *34:22 *199:B1_N 5.77 
6 *34:18 *198:A 4.215 
7 *34:10 *34:47 0.87 
8 *34:47 *200:A1 4.395 
9 *34:47 *34:58 5.205 
10 *34:58 *34:62 3.14 
11 *34:62 *201:A1_N 4.16875 
12 *34:62 *210:B 1.6 
13 *34:58 *34:80 3.125 
14 *34:80 *209:A2 2.74 
15 *34:80 *211:B 1.6 
*END

*D_NET *35 0.00311865
*CONN
*I *200:A2 I *D sky130_fd_sc_hd__a32oi_1
*I *199:A1 I *D sky130_fd_sc_hd__a21boi_1
*I *202:A2 I *D sky130_fd_sc_hd__a21o_1
*I *198:B I *D sky130_fd_sc_hd__nand3_1
*I *196:X O *D sky130_fd_sc_hd__a22o_1
*CAP
1 *200:A2 0
2 *199:A1 3.73723e-05
3 *202:A2 1.90984e-05
4 *198:B 0
5 *196:X 0.00042501
6 *35:27 8.38481e-05
7 *35:20 0.000279642
8 *35:14 0.000677275
9 *199:A1 *199:A2 0.00012657
10 *199:A1 *201:B1 1.33293e-05
11 *199:A1 *36:32 6.90876e-05
12 *202:A2 *36:19 0
13 *202:A2 *36:32 4.00541e-06
14 *35:14 *195:B 1.26626e-05
15 *35:14 *201:A2_N 3.04704e-05
16 *35:14 *56:48 5.64507e-05
17 *35:14 *63:10 9.61344e-05
18 *35:14 *63:34 0.000103592
19 *35:20 *200:A3 0.000117704
20 *35:20 *201:A2_N 7.46328e-06
21 *35:20 *36:19 5.4155e-06
22 *35:20 *36:32 2.59926e-05
23 *35:27 *36:32 4.92062e-05
24 *199:B1_N *199:A1 0.000241483
25 *200:A1 *35:14 8.4841e-05
26 *200:B1 *35:14 4.1527e-05
27 *200:B2 *35:14 4.82919e-05
28 *22:22 *35:14 0.000122199
29 *31:12 *35:14 9.90987e-05
30 *32:12 *35:14 0
31 *34:10 *35:14 0.000107716
32 *34:22 *199:A1 3.83041e-05
33 *34:22 *35:27 4.82919e-05
34 *34:47 *35:14 3.50033e-05
35 *34:58 *35:14 1.1561e-05
*RES
1 *196:X *35:14 15.05 
2 *35:14 *35:20 3.585 
3 *35:20 *198:B 1.6 
4 *35:20 *35:27 0.795 
5 *35:27 *202:A2 1.96 
6 *35:27 *199:A1 4.12 
7 *35:14 *200:A2 1.6 
*END

*D_NET *36 0.00155932
*CONN
*I *199:A2 I *D sky130_fd_sc_hd__a21boi_1
*I *202:B1 I *D sky130_fd_sc_hd__a21o_1
*I *200:A3 I *D sky130_fd_sc_hd__a32oi_1
*I *198:C I *D sky130_fd_sc_hd__nand3_1
*I *197:X O *D sky130_fd_sc_hd__a21bo_1
*CAP
1 *199:A2 1.94779e-05
2 *202:B1 0
3 *200:A3 3.79343e-05
4 *198:C 0
5 *197:X 0.000239857
6 *36:32 0.000144958
7 *36:19 0.00018232
8 *36:12 0.000258763
9 *199:A2 *201:B1 4.85494e-05
10 *200:A3 *201:A2_N 0.00011345
11 *36:32 *201:A2_N 1.16578e-05
12 *36:32 *201:B1 5.30673e-05
13 *198:A *36:12 9.3062e-06
14 *199:A1 *199:A2 0.00012657
15 *199:A1 *36:32 6.90876e-05
16 *202:A2 *36:19 0
17 *202:A2 *36:32 4.00541e-06
18 *25:14 *36:12 1.7386e-05
19 *34:18 *36:12 2.46089e-05
20 *35:20 *200:A3 0.000117704
21 *35:20 *36:19 5.4155e-06
22 *35:20 *36:32 2.59926e-05
23 *35:27 *36:32 4.92062e-05
*RES
1 *197:X *36:12 9.215 
2 *36:12 *198:C 1.6 
3 *36:12 *36:19 0.36 
4 *36:19 *200:A3 3.43 
5 *36:19 *36:32 3.24 
6 *36:32 *202:B1 1.6 
7 *36:32 *199:A2 2.74 
*END

*D_NET *37 0.0021223
*CONN
*I *219:A1 I *D sky130_fd_sc_hd__a21oi_1
*I *203:B I *D sky130_fd_sc_hd__and3_1
*I *213:A2_N I *D sky130_fd_sc_hd__a2bb2o_1
*I *198:Y O *D sky130_fd_sc_hd__nand3_1
*CAP
1 *219:A1 0.000109207
2 *203:B 0
3 *213:A2_N 0.000195332
4 *198:Y 0.000296369
5 *37:25 0.000188981
6 *37:12 0.000571476
7 *213:A2_N *201:B1 0
8 *213:A2_N *220:B 0
9 *213:A2_N *41:12 4.20983e-05
10 *213:A2_N *42:8 0.000120186
11 *213:A2_N *42:21 0.000132089
12 *219:A1 *203:C 0
13 *219:A1 *219:A2 0.000114912
14 *219:A1 *41:12 1.16578e-05
15 *37:12 *201:A2_N 2.87867e-05
16 *37:12 *201:B1 3.86529e-05
17 *37:12 *41:12 3.1835e-05
18 *37:25 *41:12 4.58257e-05
19 *203:A *219:A1 3.25635e-05
20 *213:A1_N *213:A2_N 0.000162325
21 *26:14 *213:A2_N 0
*RES
1 *198:Y *37:12 9.335 
2 *37:12 *213:A2_N 10.55 
3 *37:12 *37:25 1.14 
4 *37:25 *203:B 1.6 
5 *37:25 *219:A1 4.06 
*END

*D_NET *38 0.00102982
*CONN
*I *201:B1 I *D sky130_fd_sc_hd__o2bb2a_1
*I *199:Y O *D sky130_fd_sc_hd__a21boi_1
*CAP
1 *201:B1 0.000433047
2 *199:Y 0.000433047
3 *201:B1 *201:A2_N 0
4 *201:B1 *41:12 0
5 *199:A1 *201:B1 1.33293e-05
6 *199:A2 *201:B1 4.85494e-05
7 *199:B1_N *201:B1 1.0124e-05
8 *213:A2_N *201:B1 0
9 *36:32 *201:B1 5.30673e-05
10 *37:12 *201:B1 3.86529e-05
*RES
1 *199:Y *201:B1 13.485 
*END

*D_NET *39 0.000963485
*CONN
*I *201:A2_N I *D sky130_fd_sc_hd__o2bb2a_1
*I *200:Y O *D sky130_fd_sc_hd__a32oi_1
*CAP
1 *201:A2_N 0.00036194
2 *200:Y 0.00036194
3 *201:A2_N *41:12 0
4 *200:A3 *201:A2_N 0.00011345
5 *200:B1 *201:A2_N 4.77757e-05
6 *201:B1 *201:A2_N 0
7 *35:14 *201:A2_N 3.04704e-05
8 *35:20 *201:A2_N 7.46328e-06
9 *36:32 *201:A2_N 1.16578e-05
10 *37:12 *201:A2_N 2.87867e-05
*RES
1 *200:Y *201:A2_N 13.575 
*END

*D_NET *40 0.00169422
*CONN
*I *204:A I *D sky130_fd_sc_hd__xor2_1
*I *213:B1 I *D sky130_fd_sc_hd__a2bb2o_1
*I *217:A1 I *D sky130_fd_sc_hd__a31o_1
*I *201:X O *D sky130_fd_sc_hd__o2bb2a_1
*CAP
1 *204:A 8.57177e-05
2 *213:B1 0
3 *217:A1 0
4 *201:X 9.15627e-05
5 *40:23 0.000417996
6 *40:10 0.000423841
7 *204:A *204:B 4.60584e-05
8 *204:A *233:A 0
9 *40:10 *217:A2 5.16418e-05
10 *40:10 *217:B1 0.000200388
11 *40:23 *204:B 3.00381e-05
12 *40:23 *212:A 0.0001249
13 *40:23 *212:B 3.23663e-05
14 *40:23 *217:A2 7.84591e-05
15 *40:23 *217:B1 9.50342e-06
16 *40:23 *42:38 5.30673e-05
17 *201:A1_N *40:10 3.82986e-05
18 *33:23 *40:10 1.03783e-05
*RES
1 *201:X *40:10 6.03 
2 *40:10 *217:A1 3.6 
3 *40:10 *40:23 7.895 
4 *40:23 *213:B1 1.6 
5 *40:23 *204:A 3.1 
*END

*D_NET *41 0.000820261
*CONN
*I *219:A2 I *D sky130_fd_sc_hd__a21oi_1
*I *203:C I *D sky130_fd_sc_hd__and3_1
*I *202:X O *D sky130_fd_sc_hd__a21o_1
*CAP
1 *219:A2 3.04517e-05
2 *203:C 2.78197e-05
3 *202:X 0.000203713
4 *41:12 0.000261985
5 *201:A2_N *41:12 0
6 *201:B1 *41:12 0
7 *203:A *203:C 0
8 *203:A *219:A2 4.99619e-05
9 *213:A2_N *41:12 4.20983e-05
10 *219:A1 *203:C 0
11 *219:A1 *219:A2 0.000114912
12 *219:A1 *41:12 1.16578e-05
13 *26:14 *41:12 0
14 *37:12 *41:12 3.1835e-05
15 *37:25 *41:12 4.58257e-05
*RES
1 *202:X *41:12 9.32 
2 *41:12 *203:C 2.125 
3 *41:12 *219:A2 2.74 
*END

*D_NET *42 0.00230549
*CONN
*I *204:B I *D sky130_fd_sc_hd__xor2_1
*I *213:B2 I *D sky130_fd_sc_hd__a2bb2o_1
*I *217:A2 I *D sky130_fd_sc_hd__a31o_1
*I *220:A I *D sky130_fd_sc_hd__nor2_1
*I *203:X O *D sky130_fd_sc_hd__and3_1
*CAP
1 *204:B 4.60966e-05
2 *213:B2 0
3 *217:A2 0.000387612
4 *220:A 0.000148182
5 *203:X 5.78043e-05
6 *42:38 0.000114825
7 *42:21 0.000527556
8 *42:8 0.000277202
9 *217:A2 *212:B 0.000234674
10 *42:8 *220:B 0
11 *42:38 *212:B 0
12 *204:A *204:B 4.60584e-05
13 *213:A2_N *42:8 0.000120186
14 *213:A2_N *42:21 0.000132089
15 *40:10 *217:A2 5.16418e-05
16 *40:23 *204:B 3.00381e-05
17 *40:23 *217:A2 7.84591e-05
18 *40:23 *42:38 5.30673e-05
*RES
1 *203:X *42:8 4.98 
2 *42:8 *220:A 5.775 
3 *42:8 *42:21 3.635 
4 *42:21 *217:A2 10.805 
5 *42:21 *42:38 1.41 
6 *42:38 *213:B2 1.6 
7 *42:38 *204:B 2.74 
*END

*D_NET *43 0.000300428
*CONN
*I *208:A I *D sky130_fd_sc_hd__xor2_1
*I *205:Y O *D sky130_fd_sc_hd__nand2_1
*CAP
1 *208:A 0.000109418
2 *205:Y 0.000109418
3 *208:A *208:B 4.70343e-05
4 *208:A *52:12 3.45588e-05
*RES
1 *205:Y *208:A 9.375 
*END

*D_NET *44 0.0010197
*CONN
*I *208:B I *D sky130_fd_sc_hd__xor2_1
*I *207:C I *D sky130_fd_sc_hd__and3_1
*I *206:X O *D sky130_fd_sc_hd__a21bo_1
*CAP
1 *208:B 8.3414e-05
2 *207:C 8.18247e-06
3 *206:X 0.000206494
4 *44:8 0.000298091
5 *207:C *45:10 3.49632e-05
6 *207:C *64:16 3.49632e-05
7 *208:B *45:10 0
8 *208:B *45:23 0
9 *208:B *64:12 3.98952e-05
10 *208:B *65:47 8.53113e-06
11 *44:8 *215:A1 0
12 *44:8 *64:12 4.18603e-06
13 *44:8 *64:29 0
14 *44:8 *65:34 0
15 *44:8 *69:25 0.000253949
16 *208:A *208:B 4.70343e-05
*RES
1 *206:X *44:8 7.53 
2 *44:8 *207:C 3.93 
3 *44:8 *208:B 5.49 
*END

*D_NET *45 0.00172131
*CONN
*I *221:A2 I *D sky130_fd_sc_hd__a22o_1
*I *216:A2 I *D sky130_fd_sc_hd__a21bo_1
*I *215:B1 I *D sky130_fd_sc_hd__a21o_1
*I *207:X O *D sky130_fd_sc_hd__and3_1
*CAP
1 *221:A2 5.26751e-05
2 *216:A2 0
3 *215:B1 0
4 *207:X 0.000190606
5 *45:23 0.000198256
6 *45:10 0.000336186
7 *221:A2 *218:B 2.16833e-05
8 *221:A2 *221:A1 0.000278117
9 *221:A2 *221:B1 0.0001249
10 *221:A2 *236:A 0.00010293
11 *45:10 *215:A1 4.05358e-05
12 *45:10 *64:12 9.37731e-05
13 *45:10 *64:16 7.57603e-05
14 *45:10 *65:34 0
15 *45:10 *69:19 1.33293e-05
16 *45:23 *218:A 2.75229e-05
17 *45:23 *218:B 7.00889e-06
18 *45:23 *221:A1 8.08153e-06
19 *45:23 *236:A 5.05521e-05
20 *45:23 *65:47 6.44307e-05
21 *207:C *45:10 3.49632e-05
22 *208:B *45:10 0
23 *208:B *45:23 0
*RES
1 *207:X *45:10 6.81 
2 *45:10 *215:B1 3.6 
3 *45:10 *45:23 5.195 
4 *45:23 *216:A2 1.6 
5 *45:23 *221:A2 4.465 
*END

*D_NET *46 0.00174493
*CONN
*I *210:C I *D sky130_fd_sc_hd__nor3_1
*I *211:C I *D sky130_fd_sc_hd__or3_1
*I *209:B1 I *D sky130_fd_sc_hd__o21ai_1
*I *208:X O *D sky130_fd_sc_hd__xor2_1
*CAP
1 *210:C 5.09118e-05
2 *211:C 3.12417e-05
3 *209:B1 0
4 *208:X 0.000441894
5 *46:12 9.12632e-05
6 *46:6 0.000552827
7 *211:C *47:8 2.68526e-05
8 *201:A1_N *210:C 3.13354e-05
9 *209:A1 *46:12 3.09233e-05
10 *211:A *211:C 5.69152e-05
11 *33:14 *210:C 6.35284e-05
12 *33:14 *46:6 2.75229e-05
13 *33:45 *46:12 0.000137571
14 *34:58 *46:12 3.09233e-05
15 *34:62 *210:C 8.52883e-05
16 *34:80 *46:12 8.59296e-05
*RES
1 *208:X *46:6 8.26 
2 *46:6 *46:12 5.89 
3 *46:12 *209:B1 1.6 
4 *46:12 *211:C 2.41 
5 *46:6 *210:C 3.1 
*END

*D_NET *47 0.000920254
*CONN
*I *212:A I *D sky130_fd_sc_hd__nand2_1
*I *217:A3 I *D sky130_fd_sc_hd__a31o_1
*I *209:Y O *D sky130_fd_sc_hd__o21ai_1
*CAP
1 *212:A 6.06706e-05
2 *217:A3 0
3 *209:Y 0.000118688
4 *47:8 0.000179359
5 *212:A *212:B 0.000110555
6 *47:8 *212:B 4.69853e-05
7 *47:8 *54:6 0.000237009
8 *211:A *47:8 1.52352e-05
9 *211:C *47:8 2.68526e-05
10 *40:23 *212:A 0.0001249
*RES
1 *209:Y *47:8 4.825 
2 *47:8 *217:A3 1.6 
3 *47:8 *212:A 3.43 
*END

*D_NET *48 0.000731829
*CONN
*I *217:B1 I *D sky130_fd_sc_hd__a31o_1
*I *210:Y O *D sky130_fd_sc_hd__nor3_1
*CAP
1 *217:B1 0.000230811
2 *210:Y 0.000230811
3 *201:A1_N *217:B1 4.69853e-05
4 *213:A1_N *217:B1 0
5 *33:23 *217:B1 1.33293e-05
6 *40:10 *217:B1 0.000200388
7 *40:23 *217:B1 9.50342e-06
*RES
1 *210:Y *217:B1 10.755 
*END

*D_NET *49 0.000756568
*CONN
*I *212:B I *D sky130_fd_sc_hd__nand2_1
*I *211:X O *D sky130_fd_sc_hd__or3_1
*CAP
1 *212:B 0.000165994
2 *211:X 0.000165994
3 *212:A *212:B 0.000110555
4 *217:A2 *212:B 0.000234674
5 *40:23 *212:B 3.23663e-05
6 *42:38 *212:B 0
7 *47:8 *212:B 4.69853e-05
*RES
1 *211:X *212:B 7.37 
*END

*D_NET *50 0.000381933
*CONN
*I *214:A I *D sky130_fd_sc_hd__xnor2_1
*I *212:Y O *D sky130_fd_sc_hd__nand2_1
*CAP
1 *214:A 0.000147671
2 *212:Y 0.000147671
3 *214:A *214:B 8.65905e-05
*RES
1 *212:Y *214:A 9.72 
*END

*D_NET *51 0.000602534
*CONN
*I *214:B I *D sky130_fd_sc_hd__xnor2_1
*I *213:X O *D sky130_fd_sc_hd__a2bb2o_1
*CAP
1 *214:B 0.000257972
2 *213:X 0.000257972
3 *214:A *214:B 8.65905e-05
*RES
1 *213:X *214:B 11.355 
*END

*D_NET *52 0.000959784
*CONN
*I *221:B1 I *D sky130_fd_sc_hd__a22o_1
*I *216:B1_N I *D sky130_fd_sc_hd__a21bo_1
*I *215:X O *D sky130_fd_sc_hd__a21o_1
*CAP
1 *221:B1 8.95586e-05
2 *216:B1_N 0