*SPEF "ieee 1481-1999"
*DESIGN "mult4_SARSA_RUIDO_e9_SARSA_RUIDO_e9_SarsaNStepsRuido_e9_SarsaNStepsRuido_e9"
*DATE "11:51:39 Wednesday September 17, 2025"
*VENDOR "The OpenROAD Project"
*PROGRAM "OpenROAD"
*VERSION "edf00dff99f6c40d67a30c0e22a8191c5d2ed9d6"
*DESIGN_FLOW "NAME_SCOPE LOCAL" "PIN_CAP NONE"
*DIVIDER /
*DELIMITER :
*BUS_DELIMITER []
*T_UNIT 1 NS
*C_UNIT 1 PF
*R_UNIT 1 OHM
*L_UNIT 1 HENRY

*NAME_MAP
*1 A[0]
*2 A[1]
*3 A[2]
*4 A[3]
*5 B[0]
*6 B[1]
*7 B[2]
*8 B[3]
*9 P[0]
*10 P[1]
*11 P[2]
*12 P[3]
*13 P[4]
*14 P[5]
*15 P[6]
*16 P[7]
*19 _000_
*20 _001_
*21 _002_
*22 _003_
*23 _004_
*24 _005_
*25 _006_
*26 _007_
*27 _008_
*28 _009_
*29 _010_
*30 _011_
*31 _012_
*32 _013_
*33 _014_
*34 _015_
*35 _016_
*36 _017_
*37 _018_
*38 _019_
*39 _020_
*40 _021_
*41 _022_
*42 _023_
*43 _024_
*44 _025_
*45 _026_
*46 _027_
*47 _028_
*48 _029_
*49 _030_
*50 _031_
*51 _032_
*52 _033_
*53 _034_
*54 _035_
*55 _036_
*56 _037_
*57 _038_
*58 _039_
*59 _040_
*60 _041_
*61 _042_
*62 _043_
*63 _044_
*64 _045_
*65 _046_
*66 _047_
*67 _048_
*68 _049_
*69 _050_
*70 net1
*71 net10
*72 net11
*73 net12
*74 net13
*75 net14
*76 net15
*77 net16
*78 net2
*79 net3
*80 net4
*81 net5
*82 net6
*83 net7
*84 net8
*85 net9
*86 FILLER_0_19
*87 FILLER_0_3
*88 FILLER_0_43
*89 FILLER_0_49
*90 FILLER_0_55
*91 FILLER_0_57
*92 FILLER_0_69
*93 FILLER_0_7
*94 FILLER_1_3
*95 FILLER_1_33
*96 FILLER_1_41
*97 FILLER_1_54
*98 FILLER_1_57
*99 FILLER_1_69
*100 FILLER_1_73
*101 FILLER_1_77
*102 FILLER_2_16
*103 FILLER_2_21
*104 FILLER_2_27
*105 FILLER_2_29
*106 FILLER_2_41
*107 FILLER_2_51
*108 FILLER_2_60
*109 FILLER_2_7
*110 FILLER_2_76
*111 FILLER_3_16
*112 FILLER_3_3
*113 FILLER_3_46
*114 FILLER_3_54
*115 FILLER_3_57
*116 FILLER_3_65
*117 FILLER_3_71
*118 FILLER_3_79
*119 FILLER_3_8
*120 FILLER_4_14
*121 FILLER_4_24
*122 FILLER_4_29
*123 FILLER_4_37
*124 FILLER_4_42
*125 FILLER_4_54
*126 FILLER_4_6
*127 FILLER_4_64
*128 FILLER_4_76
*129 FILLER_5_29
*130 FILLER_5_53
*131 FILLER_5_6
*132 FILLER_5_63
*133 FILLER_6_12
*134 FILLER_6_20
*135 FILLER_6_26
*136 FILLER_6_29
*137 FILLER_6_3
*138 FILLER_6_35
*139 FILLER_6_39
*140 FILLER_6_51
*141 FILLER_6_63
*142 FILLER_6_75
*143 FILLER_7_12
*144 FILLER_7_18
*145 FILLER_7_27
*146 FILLER_7_44
*147 FILLER_7_55
*148 FILLER_7_57
*149 FILLER_7_6
*150 FILLER_7_66
*151 FILLER_7_74
*152 FILLER_8_20
*153 FILLER_8_29
*154 FILLER_8_3
*155 FILLER_8_40
*156 FILLER_8_52
*157 FILLER_8_71
*158 FILLER_8_79
*159 FILLER_9_15
*160 FILLER_9_27
*161 FILLER_9_29
*162 FILLER_9_3
*163 FILLER_9_55
*164 FILLER_9_67
*165 FILLER_9_75
*166 PHY_EDGE_ROW_0_Left_10
*167 PHY_EDGE_ROW_0_Right_0
*168 PHY_EDGE_ROW_1_Left_11
*169 PHY_EDGE_ROW_1_Right_1
*170 PHY_EDGE_ROW_2_Left_12
*171 PHY_EDGE_ROW_2_Right_2
*172 PHY_EDGE_ROW_3_Left_13
*173 PHY_EDGE_ROW_3_Right_3
*174 PHY_EDGE_ROW_4_Left_14
*175 PHY_EDGE_ROW_4_Right_4
*176 PHY_EDGE_ROW_5_Left_15
*177 PHY_EDGE_ROW_5_Right_5
*178 PHY_EDGE_ROW_6_Left_16
*179 PHY_EDGE_ROW_6_Right_6
*180 PHY_EDGE_ROW_7_Left_17
*181 PHY_EDGE_ROW_7_Right_7
*182 PHY_EDGE_ROW_8_Left_18
*183 PHY_EDGE_ROW_8_Right_8
*184 PHY_EDGE_ROW_9_Left_19
*185 PHY_EDGE_ROW_9_Right_9
*186 TAP_TAPCELL_ROW_0_20
*187 TAP_TAPCELL_ROW_0_21
*188 TAP_TAPCELL_ROW_1_22
*189 TAP_TAPCELL_ROW_2_23
*190 TAP_TAPCELL_ROW_3_24
*191 TAP_TAPCELL_ROW_4_25
*192 TAP_TAPCELL_ROW_5_26
*193 TAP_TAPCELL_ROW_6_27
*194 TAP_TAPCELL_ROW_7_28
*195 TAP_TAPCELL_ROW_8_29
*196 TAP_TAPCELL_ROW_9_30
*197 TAP_TAPCELL_ROW_9_31
*198 _051_
*199 _052_
*200 _053_
*201 _054_
*202 _055_
*203 _056_
*204 _057_
*205 _058_
*206 _059_
*207 _060_
*208 _061_
*209 _062_
*210 _063_
*211 _064_
*212 _065_
*213 _066_
*214 _067_
*215 _068_
*216 _069_
*217 _070_
*218 _071_
*219 _072_
*220 _073_
*221 _074_
*222 _075_
*223 _076_
*224 _077_
*225 _078_
*226 _079_
*227 _080_
*228 _081_
*229 _082_
*230 _083_
*231 _084_
*232 _085_
*233 _086_
*234 _087_
*235 _088_
*236 _089_
*237 _090_
*238 _091_
*239 _092_
*240 _093_
*241 _094_
*242 _095_
*243 _096_
*244 _097_
*245 _098_
*246 _099_
*247 _100_
*248 _101_
*249 _102_
*250 _103_
*251 _104_
*252 _105_
*253 _106_
*254 _107_
*255 _108_
*256 _109_
*257 input1
*258 input2
*259 input3
*260 input4
*261 input5
*262 input6
*263 input7
*264 input8
*265 output10
*266 output11
*267 output12
*268 output13
*269 output14
*270 output15
*271 output16
*272 output9

*PORTS
A[0] I
A[1] I
A[2] I
A[3] I
B[0] I
B[1] I
B[2] I
B[3] I
P[0] O
P[1] O
P[2] O
P[3] O
P[4] O
P[5] O
P[6] O
P[7] O

*D_NET *1 0.00108292
*CONN
*P A[0] I
*I *257:A I *D sky130_fd_sc_hd__clkbuf_2
*CAP
1 A[0] 0.000468243
2 *257:A 0.000468243
3 *257:A P[0] 0
4 *257:A *204:A 1.98666e-05
5 *257:A *204:B 0.00012657
6 *257:A *258:A 0
7 *257:A *20:16 0
*RES
1 A[0] *257:A 11.745 
*END

*D_NET *2 0.000925665
*CONN
*P A[1] I
*I *258:A I *D sky130_fd_sc_hd__clkbuf_2
*CAP
1 A[1] 0.000409678
2 *258:A 0.000409678
3 *258:A P[2] 0
4 *258:A *212:A 1.08758e-05
5 *258:A *212:B 7.68414e-06
6 *258:A *266:A 8.77498e-05
7 *257:A *258:A 0
*RES
1 A[1] *258:A 10.785 
*END

*D_NET *3 0.000623243
*CONN
*P A[2] I
*I *259:A I *D sky130_fd_sc_hd__buf_1
*CAP
1 A[2] 0.00028255
2 *259:A 0.00028255
3 *259:A *261:A 2.96366e-05
4 *259:A *263:A 2.85068e-05
5 *259:A *80:14 0
*RES
1 A[2] *259:A 7.5993 
*END

*D_NET *4 0.000532809
*CONN
*P A[3] I
*I *260:A I *D sky130_fd_sc_hd__buf_1
*CAP
1 A[3] 0.000255159
2 *260:A 0.000255159
3 *260:A *263:A 2.24901e-05
*RES
1 A[3] *260:A 6.8343 
*END

*D_NET *5 0.000651011
*CONN
*P B[0] I
*I *261:A I *D sky130_fd_sc_hd__buf_1
*CAP
1 B[0] 0.000297188
2 *261:A 0.000297188
3 *261:A *224:A1 0
4 *261:A *224:A2 0
5 *261:A *262:A 2.69997e-05
6 *259:A *261:A 2.96366e-05
*RES
1 B[0] *261:A 7.8543 
*END

*D_NET *6 0.000618301
*CONN
*P B[1] I
*I *262:A I *D sky130_fd_sc_hd__clkbuf_2
*CAP
1 B[1] 0.000295651
2 *262:A 0.000295651
3 *261:A *262:A 2.69997e-05
*RES
1 B[1] *262:A 7.4343 
*END

*D_NET *7 0.000868554
*CONN
*P B[2] I
*I *263:A I *D sky130_fd_sc_hd__clkbuf_2
*CAP
1 B[2] 0.000384652
2 *263:A 0.000384652
3 *263:A *235:C 8.53113e-06
4 *263:A *79:32 3.97211e-05
5 *259:A *263:A 2.85068e-05
6 *260:A *263:A 2.24901e-05
*RES
1 B[2] *263:A 5.45137 
*END

*D_NET *8 0.00106406
*CONN
*P B[3] I
*I *264:A I *D sky130_fd_sc_hd__dlymetal6s2s_1
*CAP
1 B[3] 0.000492842
2 *264:A 0.000492842
3 *264:A *251:B 4.82863e-05
4 *264:A *253:A1_N 2.56752e-06
5 *264:A *84:8 2.75229e-05
*RES
1 B[3] *264:A 12.42 
*END

*D_NET *9 0.000864143
*CONN
*P P[0] O
*I *272:X O *D sky130_fd_sc_hd__buf_2
*CAP
1 P[0] 0.000388776
2 *272:X 0.000388776
3 P[0] P[1] 0
4 P[0] *204:B 7.49327e-05
5 P[0] *205:A2 1.16578e-05
6 *257:A P[0] 0
*RES
1 *272:X P[0] 10.185 
*END

*D_NET *10 0.00110659
*CONN
*P P[1] O
*I *265:X O *D sky130_fd_sc_hd__buf_2
*CAP
1 P[1] 0.000501371
2 *265:X 0.000501371
3 P[1] *205:A2 4.82863e-05
4 P[1] *205:B1 4.85494e-05
5 P[1] *265:A 7.00889e-06
6 P[0] P[1] 0
*RES
1 *265:X P[1] 11.565 
*END

*D_NET *11 0.00086684
*CONN
*P P[2] O
*I *266:X O *D sky130_fd_sc_hd__buf_2
*CAP
1 P[2] 0.000430504
2 *266:X 0.000430504
3 P[2] *266:A 5.83121e-06
4 *258:A P[2] 0
*RES
1 *266:X P[2] 10.74 
*END

*D_NET *12 0.000478461
*CONN
*P P[3] O
*I *267:X O *D sky130_fd_sc_hd__buf_2
*CAP
1 P[3] 0.000226387
2 *267:X 0.000226387
3 P[3] P[4] 0
4 P[3] *267:A 2.56866e-05
*RES
1 *267:X P[3] 5.16003 
*END

*D_NET *13 0.000517403
*CONN
*P P[4] O
*I *268:X O *D sky130_fd_sc_hd__buf_2
*CAP
1 P[4] 0.000253911
2 *268:X 0.000253911
3 P[4] P[5] 0
4 P[4] *268:A 9.5799e-06
5 P[3] P[4] 0
*RES
1 *268:X P[4] 4.9633 
*END

*D_NET *14 0.000453565
*CONN
*P P[5] O
*I *269:X O *D sky130_fd_sc_hd__buf_2
*CAP
1 P[5] 0.000180509
2 *269:X 0.000180509
3 P[5] P[6] 9.25475e-05
4 P[4] P[5] 0
*RES
1 *269:X P[5] 4.90503 
*END

*D_NET *15 0.000598027
*CONN
*P P[6] O
*I *270:X O *D sky130_fd_sc_hd__buf_2
*CAP
1 P[6] 0.00023341
2 *270:X 0.00023341
3 P[6] *270:A 3.86607e-05
4 P[5] P[6] 9.25475e-05
*RES
1 *270:X P[6] 5.92503 
*END

*D_NET *16 0.00130109
*CONN
*P P[7] O
*I *271:X O *D sky130_fd_sc_hd__buf_2
*CAP
1 P[7] 0.000558972
2 *271:X 0.000558972
3 P[7] *254:A1 0.000176132
4 P[7] *254:B1 7.00889e-06
*RES
1 *271:X P[7] 13.035 
*END

*D_NET *19 0.00308939
*CONN
*I *225:A1 I *D sky130_fd_sc_hd__a211o_1
*I *209:A1 I *D sky130_fd_sc_hd__o211a_1
*I *204:A I *D sky130_fd_sc_hd__nor2_1
*I *198:Y O *D sky130_fd_sc_hd__inv_2
*CAP
1 *225:A1 0.000288208
2 *209:A1 0
3 *204:A 0.000335167
4 *198:Y 0.000156767
5 *19:10 0.000407564
6 *19:8 0.000517371
7 *204:A *204:B 1.61831e-05
8 *204:A *212:A 0
9 *204:A *212:B 0
10 *204:A *272:A 0.000218231
11 *204:A *20:10 9.50342e-06
12 *204:A *20:16 0.00016163
13 *204:A *70:10 5.33874e-05
14 *225:A1 *221:A_N 0.000197269
15 *225:A1 *221:B 0
16 *225:A1 *225:A2 4.66108e-05
17 *225:A1 *225:C1 1.37328e-05
18 *225:A1 *43:10 0.000157968
19 *225:A1 *78:33 1.44259e-05
20 *225:A1 *78:57 6.23375e-05
21 *19:8 *20:10 8.49205e-05
22 *19:8 *70:35 0.000122337
23 *19:8 *70:42 7.49327e-05
24 *19:10 *20:10 0.000104287
25 *19:10 *70:10 1.94805e-05
26 *19:10 *78:31 0
27 *19:10 *78:33 7.21296e-06
28 *257:A *204:A 1.98666e-05
*RES
1 *198:Y *19:8 6.465 
2 *19:8 *19:10 1.635 
3 *19:10 *204:A 10.035 
4 *19:10 *209:A1 3.6 
5 *19:8 *225:A1 9.915 
*END

*D_NET *20 0.00198537
*CONN
*I *209:A2 I *D sky130_fd_sc_hd__o211a_1
*I *204:B I *D sky130_fd_sc_hd__nor2_1
*I *205:A2 I *D sky130_fd_sc_hd__a31o_1
*I *199:Y O *D sky130_fd_sc_hd__inv_2
*CAP
1 *209:A2 0
2 *204:B 9.02686e-05
3 *205:A2 0.000136948
4 *199:Y 0.00010672
5 *20:16 0.000331187
6 *20:10 0.00021069
7 *204:B *272:A 0.000235742
8 *205:A2 *205:A3 7.60965e-05
9 *20:10 *78:33 5.38986e-05
10 *20:16 *205:A3 9.59969e-05
11 *20:16 *272:A 5.4155e-06
12 *20:16 *78:33 4.43871e-06
13 P[0] *204:B 7.49327e-05
14 P[0] *205:A2 1.16578e-05
15 P[1] *205:A2 4.82863e-05
16 *204:A *204:B 1.61831e-05
17 *204:A *20:10 9.50342e-06
18 *204:A *20:16 0.00016163
19 *257:A *204:B 0.00012657
20 *257:A *20:16 0
21 *19:8 *20:10 8.49205e-05
22 *19:10 *20:10 0.000104287
*RES
1 *199:Y *20:10 5.775 
2 *20:10 *20:16 4.76 
3 *20:16 *205:A2 4.135 
4 *20:16 *204:B 4.93 
5 *20:10 *209:A2 3.6 
*END

*D_NET *21 0.00137985
*CONN
*I *208:A2 I *D sky130_fd_sc_hd__o211a_1
*I *225:A2 I *D sky130_fd_sc_hd__a211o_1
*I *200:Y O *D sky130_fd_sc_hd__inv_2
*CAP
1 *208:A2 0
2 *225:A2 0.000165569
3 *200:Y 0.00011504
4 *21:8 0.000280609
5 *225:A2 *208:B1 5.53249e-06
6 *225:A2 *70:31 4.40899e-05
7 *225:A2 *70:75 8.05595e-05
8 *225:A2 *78:33 0
9 *225:A2 *81:30 0.000208477
10 *225:A2 *81:36 0.000159957
11 *21:8 *200:A 4.82863e-05
12 *21:8 *208:A1 0.000128956
13 *21:8 *208:C1 1.37328e-05
14 *21:8 *82:34 8.24329e-05
15 *225:A1 *225:A2 4.66108e-05
*RES
1 *200:Y *21:8 4.135 
2 *21:8 *225:A2 10.235 
3 *21:8 *208:A2 1.6 
*END

*D_NET *22 0.000537095
*CONN
*I *217:A I *D sky130_fd_sc_hd__or4b_1
*I *201:Y O *D sky130_fd_sc_hd__inv_2
*CAP
1 *217:A 0.000134184
2 *201:Y 0.000134184
3 *217:A *218:B 8.64421e-05
4 *217:A *29:25 0.000134509
5 *217:A *34:8 4.77757e-05
*RES
1 *201:Y *217:A 9.975 
*END

*D_NET *23 0.000760093
*CONN
*I *237:A1 I *D sky130_fd_sc_hd__a211o_1
*I *202:Y O *D sky130_fd_sc_hd__inv_2
*CAP
1 *237:A1 0.000303462
2 *202:Y 0.000303462
3 *237:A1 *203:A 7.27003e-05
4 *237:A1 *237:A2 7.00632e-05
5 *237:A1 *237:B1 5.53249e-06
6 *237:A1 *24:8 4.87234e-06
7 *237:A1 *84:14 0
*RES
1 *202:Y *237:A1 11.355 
*END

*D_NET *24 0.0020304
*CONN
*I *237:A2 I *D sky130_fd_sc_hd__a211o_1
*I *217:B I *D sky130_fd_sc_hd__or4b_1
*I *222:A1 I *D sky130_fd_sc_hd__a211oi_2
*I *203:Y O *D sky130_fd_sc_hd__inv_2
*CAP
1 *237:A2 0.000226238
2 *217:B 3.69588e-05
3 *222:A1 0.000149928
4 *203:Y 4.2193e-05
5 *24:10 0.000324905
6 *24:8 0.00040645
7 *217:B *218:A 4.66108e-05
8 *222:A1 *213:A 0
9 *222:A1 *29:25 0.000294421
10 *222:A1 *40:10 4.88478e-05
11 *222:A1 *83:42 0.000177026
12 *237:A2 *35:8 0
13 *237:A2 *54:6 4.60123e-05
14 *237:A2 *58:6 8.51862e-05
15 *237:A2 *84:14 0
16 *237:A2 *84:16 0
17 *24:10 *213:A 0
18 *24:10 *29:25 7.06865e-05
19 *24:10 *35:8 0
20 *24:10 *84:16 0
21 *237:A1 *237:A2 7.00632e-05
22 *237:A1 *24:8 4.87234e-06
*RES
1 *203:Y *24:8 4.05 
2 *24:8 *24:10 2.145 
3 *24:10 *222:A1 7.815 
4 *24:10 *217:B 4.05 
5 *24:8 *237:A2 7.965 
*END

*D_NET *25 0.00054275
*CONN
*I *208:B1 I *D sky130_fd_sc_hd__o211a_1
*I *205:X O *D sky130_fd_sc_hd__a31o_1
*CAP
1 *208:B1 0.000165982
2 *205:X 0.000165982
3 *208:B1 *205:A1 0
4 *208:B1 *205:A3 0.000116619
5 *208:B1 *208:A1 2.75145e-05
6 *208:B1 *81:36 1.2835e-05
7 *208:B1 *82:34 4.82863e-05
8 *225:A2 *208:B1 5.53249e-06
*RES
1 *205:X *208:B1 10.185 
*END

*D_NET *26 0.00230669
*CONN
*I *207:A I *D sky130_fd_sc_hd__inv_2
*I *223:A I *D sky130_fd_sc_hd__nand2_1
*I *226:A I *D sky130_fd_sc_hd__nor2_1
*I *206:X O *D sky130_fd_sc_hd__and4_1
*CAP
1 *207:A 0.00013852
2 *223:A 8.72777e-05
3 *226:A 0
4 *206:X 0.000330162
5 *26:12 0.000165715
6 *26:6 0.00054712
7 *207:A *208:C1 7.07195e-05
8 *207:A *231:B 3.00381e-05
9 *207:A *27:8 0.000117933
10 *223:A *210:A 0
11 *223:A *223:B 4.82919e-05
12 *223:A *228:A2 0.0001249
13 *223:A *30:10 8.82557e-05
14 *26:6 *208:C1 0.00049633
15 *26:12 *210:B 2.56752e-06
16 *26:12 *212:B 0
17 *26:12 *227:B 5.88634e-05
18 *26:12 *29:25 0
*RES
1 *206:X *26:6 6.19 
2 *26:6 *26:12 5.38 
3 *26:12 *226:A 1.6 
4 *26:12 *223:A 4.15 
5 *26:6 *207:A 4.495 
*END

*D_NET *27 0.0027004
*CONN
*I *208:C1 I *D sky130_fd_sc_hd__o211a_1
*I *227:A I *D sky130_fd_sc_hd__xnor2_1
*I *207:Y O *D sky130_fd_sc_hd__inv_2
*CAP
1 *208:C1 0.000323916
2 *227:A 0
3 *207:Y 0.000147715
4 *27:8 0.000471631
5 *208:C1 *206:B 0.000114024
6 *208:C1 *206:C 0.000300276
7 *208:C1 *208:A1 1.16578e-05
8 *208:C1 *209:B1 4.00541e-06
9 *208:C1 *209:C1 4.82863e-05
10 *208:C1 *28:8 0.000172712
11 *208:C1 *70:12 0.000297061
12 *208:C1 *78:16 5.23546e-05
13 *208:C1 *82:34 4.47209e-05
14 *27:8 *231:B 1.33293e-05
15 *207:A *208:C1 7.07195e-05
16 *207:A *27:8 0.000117933
17 *21:8 *208:C1 1.37328e-05
18 *26:6 *208:C1 0.00049633
*RES
1 *207:Y *27:8 4.39 
2 *27:8 *227:A 1.6 
3 *27:8 *208:C1 12.43 
*END

*D_NET *28 0.00214859
*CONN
*I *212:A I *D sky130_fd_sc_hd__xnor2_1
*I *211:C I *D sky130_fd_sc_hd__and3_1
*I *209:X O *D sky130_fd_sc_hd__o211a_1
*CAP
1 *212:A 0.000236971
2 *211:C 0.000189684
3 *209:X 0.00011607
4 *28:8 0.000542725
5 *211:C *210:A 3.50152e-06
6 *211:C *211:A 1.75875e-05
7 *211:C *212:B 6.98714e-05
8 *211:C *29:25 2.09211e-05
9 *211:C *30:10 1.60055e-05
10 *211:C *70:53 9.04142e-05
11 *211:C *78:16 0
12 *211:C *78:31 0
13 *212:A *212:B 0.000144862
14 *212:A *266:A 3.12499e-05
15 *28:8 *206:A 4.82919e-05
16 *28:8 *206:C 0.000163204
17 *28:8 *78:16 0.000273643
18 *204:A *212:A 0
19 *208:C1 *28:8 0.000172712
20 *258:A *212:A 1.08758e-05
*RES
1 *209:X *28:8 7.845 
2 *28:8 *211:C 7.1925 
3 *28:8 *212:A 7.8675 
*END

*D_NET *29 0.00252768
*CONN
*I *213:C I *D sky130_fd_sc_hd__and3_1
*I *217:D_N I *D sky130_fd_sc_hd__or4b_1
*I *212:B I *D sky130_fd_sc_hd__xnor2_1
*I *210:Y O *D sky130_fd_sc_hd__nand2_1
*CAP
1 *213:C 7.76993e-05
2 *217:D_N 0
3 *212:B 0.000275568
4 *210:Y 0
5 *29:25 0.000355771
6 *29:6 0.00055364
7 *212:B *227:B 0
8 *212:B *266:A 2.96121e-05
9 *212:B *78:16 5.02217e-05
10 *213:C *34:8 5.73654e-05
11 *29:25 *210:B 9.29751e-06
12 *29:25 *219:A_N 9.52234e-05
13 *29:25 *219:B 0.00011852
14 *29:25 *34:8 4.66108e-05
15 *29:25 *83:42 0.000115191
16 *204:A *212:B 0
17 *211:C *212:B 6.98714e-05
18 *211:C *29:25 2.09211e-05
19 *212:A *212:B 0.000144862
20 *217:A *29:25 0.000134509
21 *222:A1 *29:25 0.000294421
22 *258:A *212:B 7.68414e-06
23 *24:10 *29:25 7.06865e-05
24 *26:12 *212:B 0
25 *26:12 *29:25 0
*RES
1 *210:Y *29:6 3.6 
2 *29:6 *212:B 8.61 
3 *29:6 *29:25 9.44 
4 *29:25 *217:D_N 1.6 
5 *29:25 *213:C 2.98 
*END

*D_NET *30 0.0027432
*CONN
*I *255:A I *D sky130_fd_sc_hd__nor2_1
*I *232:A I *D sky130_fd_sc_hd__and2_1
*I *233:A I *D sky130_fd_sc_hd__nand2_1
*I *211:X O *D sky130_fd_sc_hd__and3_1
*CAP
1 *255:A 3.08966e-05
2 *232:A 0
3 *233:A 0.000148303
4 *211:X 0.000738461
5 *30:10 0.000917661
6 *233:A *233:B 8.47542e-05
7 *233:A *244:A2 2.75145e-05
8 *233:A *256:A 0
9 *255:A *255:B 8.65961e-05
10 *30:10 *210:B 8.64421e-05
11 *30:10 *219:A_N 3.48309e-05
12 *30:10 *223:B 4.82919e-05
13 *30:10 *228:A2 3.23663e-05
14 *30:10 *255:B 2.55546e-05
15 *30:10 *49:10 0.000278972
16 *30:10 *49:23 7.66083e-05
17 *30:10 *70:53 2.16917e-05
18 *211:C *30:10 1.60055e-05
19 *223:A *30:10 8.82557e-05
*RES
1 *211:X *30:10 14.155 
2 *30:10 *233:A 8.45 
3 *30:10 *232:A 1.6 
4 *30:10 *255:A 2.395 
*END

*D_NET *31 0.000907699
*CONN
*I *218:A I *D sky130_fd_sc_hd__xor2_1
*I *213:X O *D sky130_fd_sc_hd__and3_1
*CAP
1 *218:A 0.000239281
2 *213:X 0.000239281
3 *218:A *218:B 0.000226385
4 *218:A *34:8 0.000156142
5 *217:B *218:A 4.66108e-05
*RES
1 *213:X *218:A 7.715 
*END

*D_NET *32 0.000408753
*CONN
*I *216:A0 I *D sky130_fd_sc_hd__mux2_1
*I *214:Y O *D sky130_fd_sc_hd__nand2_1
*CAP
1 *216:A0 0.000129833
2 *214:Y 0.000129833
3 *216:A0 *82:58 7.00889e-06
4 *216:A0 *82:67 9.21168e-05
5 *216:A0 *82:74 4.99619e-05
*RES
1 *214:Y *216:A0 5.03 
*END

*D_NET *33 0.00243387
*CONN
*I *216:S I *D sky130_fd_sc_hd__mux2_1
*I *238:B I *D sky130_fd_sc_hd__and3_1
*I *239:A2 I *D sky130_fd_sc_hd__a21oi_1
*I *225:B1 I *D sky130_fd_sc_hd__a211o_1
*I *215:X O *D sky130_fd_sc_hd__and3_1
*CAP
1 *216:S 2.08101e-05
2 *238:B 0.000104506
3 *239:A2 7.67355e-05
4 *225:B1 7.8218e-05
5 *215:X 5.32643e-05
6 *33:27 0.000362256
7 *33:23 0.000305915
8 *33:8 0.000235571
9 *225:B1 *81:30 5.42386e-05
10 *225:B1 *82:58 0.000207783
11 *225:B1 *83:23 0
12 *238:B *34:8 4.21973e-05
13 *238:B *56:10 4.99619e-05
14 *239:A2 *238:C 0.000110683
15 *239:A2 *239:A1 4.18527e-05
16 *239:A2 *34:8 0.000266475
17 *239:A2 *82:67 0
18 *239:A2 *82:74 8.65905e-05
19 *33:8 *215:B 4.82919e-05
20 *33:8 *81:30 4.80182e-05
21 *33:23 *82:58 0.000114153
22 *33:23 *82:67 4.47209e-05
23 *33:23 *83:23 0
24 *33:27 *82:67 3.23663e-05
25 *33:27 *82:74 4.92604e-05
*RES
1 *215:X *33:8 4.74 
2 *33:8 *225:B1 6 
3 *33:8 *33:23 4.175 
4 *33:23 *33:27 2.535 
5 *33:27 *239:A2 4.99 
6 *33:27 *238:B 3.085 
7 *33:23 *216:S 1.96 
*END

*D_NET *34 0.0021138
*CONN
*I *218:B I *D sky130_fd_sc_hd__xor2_1
*I *217:C I *D sky130_fd_sc_hd__or4b_1
*I *216:X O *D sky130_fd_sc_hd__mux2_1
*CAP
1 *218:B 6.53922e-05
2 *217:C 0
3 *216:X 0.000276755
4 *34:8 0.000342147
5 *34:8 *213:A 4.8854e-05
6 *34:8 *213:B 0.000110817
7 *34:8 *238:C 6.6564e-05
8 *34:8 *56:10 0.000273878
9 *213:C *34:8 5.73654e-05
10 *217:A *218:B 8.64421e-05
11 *217:A *34:8 4.77757e-05
12 *218:A *218:B 0.000226385
13 *218:A *34:8 0.000156142
14 *238:B *34:8 4.21973e-05
15 *239:A2 *34:8 0.000266475
16 *29:25 *34:8 4.66108e-05
*RES
1 *216:X *34:8 9.655 
2 *34:8 *217:C 1.6 
3 *34:8 *218:B 3.775 
*END

*D_NET *35 0.000858659
*CONN
*I *243:A I *D sky130_fd_sc_hd__xor2_1
*I *242:A I *D sky130_fd_sc_hd__nor2_1
*I *217:X O *D sky130_fd_sc_hd__or4b_1
*CAP
1 *243:A 0.000120395
2 *242:A 0
3 *217:X 0.000239103
4 *35:8 0.000359498
5 *243:A *237:B1 0
6 *243:A *243:B 5.30673e-05
7 *243:A *247:C1 8.65961e-05
8 *237:A2 *35:8 0
9 *24:10 *35:8 0
*RES
1 *217:X *35:8 7.275 
2 *35:8 *242:A 3.6 
3 *35:8 *243:A 6 
*END

*D_NET *36 0.000724918
*CONN
*I *229:A_N I *D sky130_fd_sc_hd__and2b_1
*I *230:A I *D sky130_fd_sc_hd__xor2_1
*I *218:X O *D sky130_fd_sc_hd__xor2_1
*CAP
1 *229:A_N 0
2 *230:A 0.000154808
3 *218:X 0.000125308
4 *36:6 0.000280116
5 *230:A *229:B 0.000133763
6 *230:A *46:10 3.09233e-05
7 *230:A *50:10 0
*RES
1 *218:X *36:6 3.43 
2 *36:6 *230:A 8.54 
3 *36:6 *229:A_N 1.6 
*END

*D_NET *37 0.000455409
*CONN
*I *222:A2 I *D sky130_fd_sc_hd__a211oi_2
*I *219:Y O *D sky130_fd_sc_hd__nand3b_1
*CAP
1 *222:A2 7.82954e-05
2 *219:Y 7.82954e-05
3 *222:A2 *219:B 6.70275e-05
4 *222:A2 *40:10 0.000231791
*RES
1 *219:Y *222:A2 5.375 
*END

*D_NET *38 0.00194858
*CONN
*I *222:B1 I *D sky130_fd_sc_hd__a211oi_2
*I *238:C I *D sky130_fd_sc_hd__and3_1
*I *239:B1 I *D sky130_fd_sc_hd__a21oi_1
*I *220:X O *D sky130_fd_sc_hd__and4_1
*CAP
1 *222:B1 0.000188054
2 *238:C 8.37353e-05
3 *239:B1 0
4 *220:X 0.000131904
5 *38:12 0.000226731
6 *38:6 0.000462954
7 *222:B1 *221:B 0
8 *222:B1 *78:66 0.0001249
9 *222:B1 *78:81 3.66286e-05
10 *238:C *239:A1 0.000148988
11 *38:6 *78:66 0.000198934
12 *38:12 *213:A 7.21296e-06
13 *38:12 *221:B 4.9968e-05
14 *38:12 *55:8 0
15 *38:12 *83:23 0
16 *38:12 *84:16 3.50033e-05
17 *38:12 *84:22 7.63204e-05
18 *239:A2 *238:C 0.000110683
19 *34:8 *238:C 6.6564e-05
*RES
1 *220:X *38:6 3.43 
2 *38:6 *38:12 6.91 
3 *38:12 *239:B1 1.6 
4 *38:12 *238:C 4.015 
5 *38:6 *222:B1 8.465 
*END

*D_NET *39 6.68839e-05
*CONN
*I *222:C1 I *D sky130_fd_sc_hd__a211oi_2
*I *221:X O *D sky130_fd_sc_hd__and2b_1
*CAP
1 *222:C1 1.84229e-05
2 *221:X 1.84229e-05
3 *222:C1 *43:10 3.00381e-05
*RES
1 *221:X *222:C1 3.65 
*END

*D_NET *40 0.00202668
*CONN
*I *223:B I *D sky130_fd_sc_hd__nand2_1
*I *226:B I *D sky130_fd_sc_hd__nor2_1
*I *227:B I *D sky130_fd_sc_hd__xnor2_1
*I *222:Y O *D sky130_fd_sc_hd__a211oi_2
*CAP
1 *223:B 9.71884e-06
2 *226:B 0
3 *227:B 0.000167702
4 *222:Y 0.000291353
5 *40:21 9.71884e-06
6 *40:10 0.000459055
7 *227:B *231:B 0
8 *40:10 *228:A2 0
9 *40:10 *228:B1 4.94326e-05
10 *40:10 *43:10 0.000603617
11 *212:B *227:B 0
12 *222:A1 *40:10 4.88478e-05
13 *222:A2 *40:10 0.000231791
14 *223:A *223:B 4.82919e-05
15 *26:12 *227:B 5.88634e-05
16 *30:10 *223:B 4.82919e-05
*RES
1 *222:Y *40:10 11.115 
2 *40:10 *227:B 5.745 
3 *40:10 *40:21 2 
4 *40:21 *226:B 1.6 
5 *40:21 *223:B 2.05 
*END

*D_NET *41 0.000339495
*CONN
*I *228:B1 I *D sky130_fd_sc_hd__o21ai_1
*I *223:Y O *D sky130_fd_sc_hd__nand2_1
*CAP
1 *228:B1 0.000106492
2 *223:Y 0.000106492
3 *228:B1 *228:A2 2.87867e-05
4 *228:B1 *231:A 0
5 *228:B1 *43:10 4.82919e-05
6 *40:10 *228:B1 4.94326e-05
*RES
1 *223:Y *228:B1 9.03 
*END

*D_NET *42 0.000198184
*CONN
*I *225:C1 I *D sky130_fd_sc_hd__a211o_1
*I *224:Y O *D sky130_fd_sc_hd__a21oi_1
*CAP
1 *225:C1 7.72065e-05
2 *224:Y 7.72065e-05
3 *225:C1 *224:A2 0
4 *225:C1 *224:B1 3.00381e-05
5 *225:A1 *225:C1 1.37328e-05
*RES
1 *224:Y *225:C1 4.715 
*END

*D_NET *43 0.00345694
*CONN
*I *231:A I *D sky130_fd_sc_hd__xnor2_1
*I *228:A1 I *D sky130_fd_sc_hd__o21ai_1
*I *225:X O *D sky130_fd_sc_hd__a211o_1
*CAP
1 *231:A 0.00015963
2 *228:A1 0
3 *225:X 0.00103537
4 *43:10 0.001195
5 *231:A *228:A2 3.68769e-05
6 *231:A *231:B 3.25831e-05
7 *231:A *46:10 5.05437e-05
8 *231:A *50:10 0
9 *43:10 *221:A_N 3.09179e-05
10 *43:10 *46:10 7.60965e-05
11 *222:C1 *43:10 3.00381e-05
12 *225:A1 *43:10 0.000157968
13 *228:B1 *231:A 0
14 *228:B1 *43:10 4.82919e-05
15 *40:10 *43:10 0.000603617
*RES
1 *225:X *43:10 15.79 
2 *43:10 *228:A1 1.6 
3 *43:10 *231:A 8.795 
*END

*D_NET *44 0.000510122
*CONN
*I *228:A2 I *D sky130_fd_sc_hd__o21ai_1
*I *226:Y O *D sky130_fd_sc_hd__nor2_1
*CAP
1 *228:A2 0.000143596
2 *226:Y 0.000143596
3 *223:A *228:A2 0.0001249
4 *228:B1 *228:A2 2.87867e-05
5 *231:A *228:A2 3.68769e-05
6 *30:10 *228:A2 3.23663e-05
7 *40:10 *228:A2 0
*RES
1 *226:Y *228:A2 10.155 
*END

*D_NET *45 0.000533355
*CONN
*I *231:B I *D sky130_fd_sc_hd__xnor2_1
*I *227:Y O *D sky130_fd_sc_hd__xnor2_1
*CAP
1 *231:B 0.000228702
2 *227:Y 0.000228702
3 *207:A *231:B 3.00381e-05
4 *227:B *231:B 0
5 *231:A *231:B 3.25831e-05
6 *27:8 *231:B 1.33293e-05
*RES
1 *227:Y *231:B 10.32 
*END

*D_NET *46 0.00120433
*CONN
*I *229:B I *D sky130_fd_sc_hd__and2b_1
*I *230:B I *D sky130_fd_sc_hd__xor2_1
*I *228:Y O *D sky130_fd_sc_hd__o21ai_1
*CAP
1 *229:B 0.00012686
2 *230:B 0
3 *228:Y 0.000329641
4 *46:10 0.000456501
5 *229:B *50:10 0
6 *46:10 *50:10 0
7 *230:A *229:B 0.000133763
8 *230:A *46:10 3.09233e-05
9 *231:A *46:10 5.05437e-05
10 *43:10 *46:10 7.60965e-05
*RES
1 *228:Y *46:10 8.1 
2 *46:10 *230:B 3.6 
3 *46:10 *229:B 6.03 
*END

*D_NET *47 0.00100868
*CONN
*I *244:B1_N I *D sky130_fd_sc_hd__o21ba_1
*I *247:A1 I *D sky130_fd_sc_hd__a221o_1
*I *229:X O *D sky130_fd_sc_hd__and2b_1
*CAP
1 *244:B1_N 0.000137068
2 *247:A1 0.000169886
3 *229:X 0
4 *47:4 0.000306955
5 *244:B1_N *234:B 0.000163204
6 *244:B1_N *245:B 5.30673e-05
7 *247:A1 *247:B2 0.000178504
*RES
1 *229:X *47:4 1.6 
2 *47:4 *247:A1 9.275 
3 *47:4 *244:B1_N 4.495 
*END

*D_NET *48 0.00111284
*CONN
*I *234:A I *D sky130_fd_sc_hd__xnor2_1
*I *244:A1 I *D sky130_fd_sc_hd__o21ba_1
*I *230:X O *D sky130_fd_sc_hd__xor2_1
*CAP
1 *234:A 5.92856e-05
2 *244:A1 0
3 *230:X 0.000415676
4 *48:12 0.000474962
5 *234:A *234:B 8.65961e-05
6 *48:12 *244:A2 7.63204e-05
7 *48:12 *268:A 0
*RES
1 *230:X *48:12 10.79 
2 *48:12 *244:A1 1.6 
3 *48:12 *234:A 2.74 
*END

*D_NET *49 0.00148102
*CONN
*I *255:B I *D sky130_fd_sc_hd__nor2_1
*I *232:B I *D sky130_fd_sc_hd__and2_1
*I *233:B I *D sky130_fd_sc_hd__nand2_1
*I *231:Y O *D sky130_fd_sc_hd__xnor2_1
*CAP
1 *255:B 7.68661e-05
2 *232:B 0
3 *233:B 0.000112635
4 *231:Y 0.000151336
5 *49:23 9.28657e-05
6 *49:10 0.000279971
7 *233:B *50:10 0
8 *255:B *256:A 0.000118294
9 *49:10 *50:10 6.6925e-05
10 *49:23 *256:A 2.59926e-05
11 *49:23 *50:10 3.64998e-06
12 *233:A *233:B 8.47542e-05
13 *255:A *255:B 8.65961e-05
14 *30:10 *255:B 2.55546e-05
15 *30:10 *49:10 0.000278972
16 *30:10 *49:23 7.66083e-05
*RES
1 *231:Y *49:10 5.53 
2 *49:10 *233:B 8 
3 *49:10 *49:23 0.795 
4 *49:23 *232:B 1.6 
5 *49:23 *255:B 4.15 
*END

*D_NET *50 0.00382511
*CONN
*I *256:A I *D sky130_fd_sc_hd__nor2_1
*I *247:B2 I *D sky130_fd_sc_hd__a221o_1
*I *234:B I *D sky130_fd_sc_hd__xnor2_1
*I *232:X O *D sky130_fd_sc_hd__and2_1
*CAP
1 *256:A 0.000340868
2 *247:B2 0.000415931
3 *234:B 0.00021659
4 *232:X 0
5 *50:10 0.00109441
6 *50:4 0.00080276
7 *247:B2 *245:B 0
8 *247:B2 *247:A2 1.59999e-05
9 *247:B2 *247:B1 1.22676e-05
10 *247:B2 *247:C1 1.85674e-05
11 *247:B2 *60:8 7.41808e-05
12 *247:B2 *63:10 4.43871e-06
13 *256:A *256:B 6.74079e-05
14 *256:A *267:A 0.00011852
15 *50:10 *244:A2 0
16 *229:B *50:10 0
17 *230:A *50:10 0
18 *231:A *50:10 0
19 *233:A *256:A 0
20 *233:B *50:10 0
21 *234:A *234:B 8.65961e-05
22 *244:B1_N *234:B 0.000163204
23 *247:A1 *247:B2 0.000178504
24 *255:B *256:A 0.000118294
25 *46:10 *50:10 0
26 *49:10 *50:10 6.6925e-05
27 *49:23 *256:A 2.59926e-05
28 *49:23 *50:10 3.64998e-06
*RES
1 *232:X *50:4 1.6 
2 *50:4 *50:10 8.945 
3 *50:10 *234:B 7.5 
4 *50:10 *247:B2 10.89 
5 *50:4 *256:A 11.12 
*END

*D_NET *51 0.000594057
*CONN
*I *244:A2 I *D sky130_fd_sc_hd__o21ba_1
*I *233:Y O *D sky130_fd_sc_hd__nand2_1
*CAP
1 *244:A2 0.000245111
2 *233:Y 0.000245111
3 *244:A2 *268:A 0
4 *233:A *244:A2 2.75145e-05
5 *48:12 *244:A2 7.63204e-05
6 *50:10 *244:A2 0
*RES
1 *233:Y *244:A2 11.325 
*END

*D_NET *52 0.00314314
*CONN
*I *249:A2 I *D sky130_fd_sc_hd__a21o_1
*I *248:A I *D sky130_fd_sc_hd__nor2_1
*I *237:B1 I *D sky130_fd_sc_hd__a211o_1
*I *253:B2 I *D sky130_fd_sc_hd__a2bb2o_1
*I *235:X O *D sky130_fd_sc_hd__and3_1
*CAP
1 *249:A2 0
2 *248:A 2.27133e-05
3 *237:B1 0.000191884
4 *253:B2 8.63831e-05
5 *235:X 0.000506307
6 *52:29 0.000298264
7 *52:14 0.000676357
8 *237:B1 *251:A 8.52845e-05
9 *237:B1 *84:14 0
10 *248:A *249:B1 9.55816e-05
11 *248:A *251:A 4.89295e-05
12 *253:B2 *66:22 0.000144164
13 *253:B2 *84:12 0.000137571
14 *52:14 *237:C1 0.000102049
15 *52:14 *246:A 0.000117116
16 *52:14 *246:B 0
17 *52:14 *249:A1 2.0514e-05
18 *52:14 *250:A1 0.000241483
19 *52:14 *62:12 0.000235568
20 *52:14 *84:12 0
21 *52:29 *249:A1 4.94457e-05
22 *52:29 *249:B1 2.60068e-05
23 *52:29 *62:12 5.1989e-05
24 *237:A1 *237:B1 5.53249e-06
25 *243:A *237:B1 0
*RES
1 *235:X *52:14 14.09 
2 *52:14 *253:B2 7.745 
3 *52:14 *52:29 1.845 
4 *52:29 *237:B1 8.48 
5 *52:29 *248:A 2.755 
6 *52:14 *249:A2 1.6 
*END

*D_NET *53 0.00250273
*CONN
*I *237:C1 I *D sky130_fd_sc_hd__a211o_1
*I *236:Y O *D sky130_fd_sc_hd__a21oi_1
*CAP
1 *237:C1 0.000607555
2 *236:Y 0.000607555
3 *237:C1 *235:A 0.000122331
4 *237:C1 *235:C 0
5 *237:C1 *241:A 9.13949e-06
6 *237:C1 *241:B 0.000237249
7 *237:C1 *246:B 0.000313852
8 *237:C1 *250:A1 0.000102835
9 *237:C1 *54:6 0.000172066
10 *237:C1 *58:6 2.86975e-05
11 *237:C1 *80:6 8.65905e-05
12 *237:C1 *80:10 2.87867e-05
13 *237:C1 *80:58 8.40269e-05
14 *52:14 *237:C1 0.000102049
*RES
1 *236:Y *237:C1 20.535 
*END

*D_NET *54 0.00175046
*CONN
*I *241:A I *D sky130_fd_sc_hd__xnor2_1
*I *250:A1 I *D sky130_fd_sc_hd__o21ba_1
*I *237:X O *D sky130_fd_sc_hd__a211o_1
*CAP
1 *241:A 1.8855e-05
2 *250:A1 0.000128076
3 *237:X 0.000202759
4 *54:6 0.00034969
5 *250:A1 *241:B 0.000138808
6 *250:A1 *66:22 0.000238403
7 *54:6 *58:6 5.34025e-05
8 *54:6 *66:22 4.89295e-05
9 *237:A2 *54:6 4.60123e-05
10 *237:C1 *241:A 9.13949e-06
11 *237:C1 *250:A1 0.000102835
12 *237:C1 *54:6 0.000172066
13 *52:14 *250:A1 0.000241483
*RES
1 *237:X *54:6 5.5 
2 *54:6 *250:A1 6.55 
3 *54:6 *241:A 1.96 
*END

*D_NET *55 0.000861215
*CONN
*I *250:B1_N I *D sky130_fd_sc_hd__o21ba_1
*I *240:A I *D sky130_fd_sc_hd__or2_1
*I *238:X O *D sky130_fd_sc_hd__and3_1
*CAP
1 *250:B1_N 9.47694e-05
2 *240:A 2.22788e-05
3 *238:X 0.000149129
4 *55:8 0.000266177
5 *240:A *202:A 4.82863e-05
6 *250:B1_N *241:B 0.000117832
7 *250:B1_N *250:A2 7.97083e-05
8 *250:B1_N *84:14 0
9 *55:8 *250:A2 1.43521e-05
10 *55:8 *56:10 6.86819e-05
11 *55:8 *83:23 0
12 *55:8 *84:16 0
13 *38:12 *55:8 0
*RES
1 *238:X *55:8 6.255 
2 *55:8 *240:A 4.05 
3 *55:8 *250:B1_N 6 
*END

*D_NET *56 0.001306
*CONN
*I *250:A2 I *D sky130_fd_sc_hd__o21ba_1
*I *240:B I *D sky130_fd_sc_hd__or2_1
*I *239:Y O *D sky130_fd_sc_hd__a21oi_1
*CAP
1 *250:A2 0.000112042
2 *240:B 0
3 *239:Y 0.000185433
4 *56:10 0.000297475
5 *250:A2 *246:B 0
6 *250:A2 *83:23 4.44927e-05
7 *56:10 *83:23 0.000179981
8 *238:B *56:10 4.99619e-05
9 *250:B1_N *250:A2 7.97083e-05
10 *34:8 *56:10 0.000273878
11 *55:8 *250:A2 1.43521e-05
12 *55:8 *56:10 6.86819e-05
*RES
1 *239:Y *56:10 8.265 
2 *56:10 *240:B 3.6 
3 *56:10 *250:A2 6.255 
*END

*D_NET *57 0.000710213
*CONN
*I *241:B I *D sky130_fd_sc_hd__xnor2_1
*I *240:X O *D sky130_fd_sc_hd__or2_1
*CAP
1 *241:B 0.000108162
2 *240:X 0.000108162
3 *241:B *84:14 0
4 *237:C1 *241:B 0.000237249
5 *250:A1 *241:B 0.000138808
6 *250:B1_N *241:B 0.000117832
*RES
1 *240:X *241:B 10.755 
*END

*D_NET *58 0.00100668
*CONN
*I *243:B I *D sky130_fd_sc_hd__xor2_1
*I *242:B I *D sky130_fd_sc_hd__nor2_1
*I *241:Y O *D sky130_fd_sc_hd__xnor2_1
*CAP
1 *243:B 8.38974e-05
2 *242:B 3.57915e-05
3 *241:Y 0.000246739
4 *58:6 0.000366428
5 *243:B *247:C1 3.23663e-05
6 *58:6 *247:C1 2.11084e-05
7 *237:A2 *58:6 8.51862e-05
8 *237:C1 *58:6 2.86975e-05
9 *243:A *243:B 5.30673e-05