*SPEF "ieee 1481-1999"
*DESIGN "mult8_2bits_1op_e16769"
*DATE "19:01:36 Tuesday September 16, 2025"
*VENDOR "The OpenROAD Project"
*PROGRAM "OpenROAD"
*VERSION "edf00dff99f6c40d67a30c0e22a8191c5d2ed9d6"
*DESIGN_FLOW "NAME_SCOPE LOCAL" "PIN_CAP NONE"
*DIVIDER /
*DELIMITER :
*BUS_DELIMITER []
*T_UNIT 1 NS
*C_UNIT 1 PF
*R_UNIT 1 OHM
*L_UNIT 1 HENRY

*NAME_MAP
*1 A[0]
*2 A[1]
*3 A[2]
*4 A[3]
*5 A[4]
*6 A[5]
*7 A[6]
*8 A[7]
*9 B[0]
*10 B[1]
*11 B[2]
*12 B[3]
*13 B[4]
*14 B[5]
*15 B[6]
*16 B[7]
*17 P[0]
*18 P[10]
*19 P[11]
*20 P[12]
*21 P[13]
*22 P[14]
*23 P[15]
*24 P[1]
*25 P[2]
*26 P[3]
*27 P[4]
*28 P[5]
*29 P[6]
*30 P[7]
*31 P[8]
*32 P[9]
*35 _000_
*36 _001_
*37 _002_
*38 _003_
*39 _004_
*40 _005_
*41 _006_
*42 _007_
*43 _008_
*44 _009_
*45 _010_
*46 _011_
*47 _012_
*48 _013_
*49 _014_
*50 _015_
*51 _016_
*52 _017_
*53 _018_
*54 _019_
*55 _020_
*56 _021_
*57 _022_
*58 _023_
*59 _024_
*60 _025_
*61 _026_
*62 _027_
*63 _028_
*64 _029_
*65 _030_
*66 _031_
*67 _032_
*68 _033_
*69 _034_
*70 _035_
*71 _036_
*72 _037_
*73 _038_
*74 _039_
*75 _040_
*76 _041_
*77 _042_
*78 _043_
*79 _044_
*80 _045_
*81 _046_
*82 _047_
*83 _048_
*84 _049_
*85 _050_
*86 _051_
*87 _052_
*88 _053_
*89 _054_
*90 _055_
*91 _056_
*92 _057_
*93 _058_
*94 _059_
*95 _060_
*96 _061_
*97 _062_
*98 _063_
*99 _064_
*100 _065_
*101 _066_
*102 _067_
*103 _068_
*104 _069_
*105 _070_
*106 _071_
*107 _072_
*108 _073_
*109 _074_
*110 _075_
*111 _076_
*112 _077_
*113 _078_
*114 _079_
*115 _080_
*116 _081_
*117 _082_
*118 _083_
*119 _084_
*120 _085_
*121 _086_
*122 _087_
*123 _088_
*124 _089_
*125 _090_
*126 _091_
*127 _092_
*128 _093_
*129 _094_
*130 _095_
*131 _096_
*132 _097_
*133 _098_
*134 _099_
*135 _100_
*136 _101_
*137 _102_
*138 _103_
*139 _104_
*140 _105_
*141 _106_
*142 _107_
*143 _108_
*144 _109_
*145 _110_
*146 _111_
*147 _112_
*148 _113_
*149 _114_
*150 _115_
*151 _116_
*152 _117_
*153 _118_
*154 _119_
*155 _120_
*156 _121_
*157 _122_
*158 _123_
*159 _124_
*160 _125_
*161 _126_
*162 _127_
*163 _128_
*164 _129_
*165 _130_
*166 _131_
*167 _132_
*168 _133_
*169 _134_
*170 _135_
*171 _136_
*172 _137_
*173 _138_
*174 _139_
*175 _140_
*176 _141_
*177 _142_
*178 _143_
*179 _144_
*180 _145_
*181 _146_
*182 _147_
*183 _148_
*184 _149_
*185 _150_
*186 _151_
*187 _152_
*188 _153_
*189 _154_
*190 _155_
*191 _156_
*192 _157_
*193 _158_
*194 _159_
*195 _160_
*196 _161_
*197 _162_
*198 _163_
*199 _164_
*200 _165_
*201 _166_
*202 _167_
*203 _168_
*204 _169_
*205 _170_
*206 _171_
*207 _172_
*208 _173_
*209 _174_
*210 _175_
*211 _176_
*212 _177_
*213 _178_
*214 _179_
*215 _180_
*216 _181_
*217 _182_
*218 _183_
*219 _184_
*220 _185_
*221 _186_
*222 _187_
*223 _188_
*224 _189_
*225 _190_
*226 _191_
*227 _192_
*228 _193_
*229 _194_
*230 _195_
*231 _196_
*232 _197_
*233 _198_
*234 _199_
*235 _200_
*236 _201_
*237 _202_
*238 _203_
*239 _204_
*240 _205_
*241 _206_
*242 _207_
*243 _208_
*244 _209_
*245 _210_
*246 _211_
*247 _212_
*248 _213_
*249 _214_
*250 _215_
*251 _216_
*252 _217_
*253 _218_
*254 _219_
*255 _220_
*256 _221_
*257 _222_
*258 _223_
*259 _224_
*260 _225_
*261 _226_
*262 _227_
*263 _228_
*264 _229_
*265 _230_
*266 _231_
*267 _232_
*268 _233_
*269 _234_
*270 _235_
*271 _236_
*272 _237_
*273 _238_
*274 _239_
*275 _240_
*276 _241_
*277 _242_
*278 _243_
*279 _244_
*280 _245_
*281 _246_
*282 _247_
*283 _248_
*284 _249_
*285 _250_
*286 _251_
*287 _252_
*288 _253_
*289 _254_
*290 _255_
*291 _256_
*292 _257_
*293 _258_
*294 _259_
*295 _260_
*296 _261_
*297 _262_
*298 _263_
*299 _264_
*300 _265_
*301 _266_
*302 _267_
*303 _268_
*304 _269_
*305 _270_
*306 _271_
*307 _272_
*308 _273_
*309 _274_
*310 _275_
*311 _276_
*312 _277_
*313 _278_
*314 _279_
*315 _280_
*316 _281_
*317 _282_
*318 _283_
*319 net1
*320 net10
*321 net100
*322 net11
*323 net12
*324 net13
*325 net14
*326 net15
*327 net16
*328 net17
*329 net18
*330 net19
*331 net2
*332 net20
*333 net21
*334 net22
*335 net23
*336 net24
*337 net25
*338 net26
*339 net27
*340 net28
*341 net29
*342 net3
*343 net30
*344 net31
*345 net32
*346 net33
*347 net34
*348 net35
*349 net36
*350 net37
*351 net38
*352 net39
*353 net4
*354 net40
*355 net41
*356 net42
*357 net43
*358 net44
*359 net45
*360 net46
*361 net47
*362 net48
*363 net49
*364 net5
*365 net50
*366 net51
*367 net52
*368 net53
*369 net54
*370 net55
*371 net56
*372 net57
*373 net58
*374 net59
*375 net6
*376 net60
*377 net61
*378 net62
*379 net7
*380 net70
*381 net71
*382 net72
*383 net73
*384 net74
*385 net75
*386 net76
*387 net77
*388 net78
*389 net79
*390 net8
*391 net80
*392 net9
*393 FILLER_0_110
*394 FILLER_0_123
*395 FILLER_0_135
*396 FILLER_0_139
*397 FILLER_0_141
*398 FILLER_0_15
*399 FILLER_0_153
*400 FILLER_0_165
*401 FILLER_0_169
*402 FILLER_0_181
*403 FILLER_0_188
*404 FILLER_0_197
*405 FILLER_0_203
*406 FILLER_0_210
*407 FILLER_0_222
*408 FILLER_0_225
*409 FILLER_0_237
*410 FILLER_0_250
*411 FILLER_0_253
*412 FILLER_0_265
*413 FILLER_0_27
*414 FILLER_0_277
*415 FILLER_0_281
*416 FILLER_0_289
*417 FILLER_0_29
*418 FILLER_0_299
*419 FILLER_0_3
*420 FILLER_0_307
*421 FILLER_0_309
*422 FILLER_0_321
*423 FILLER_0_333
*424 FILLER_0_337
*425 FILLER_0_349
*426 FILLER_0_361
*427 FILLER_0_365
*428 FILLER_0_377
*429 FILLER_0_389
*430 FILLER_0_393
*431 FILLER_0_405
*432 FILLER_0_41
*433 FILLER_0_53
*434 FILLER_0_57
*435 FILLER_0_69
*436 FILLER_0_81
*437 FILLER_0_85
*438 FILLER_0_93
*439 FILLER_0_98
*440 FILLER_10_109
*441 FILLER_10_121
*442 FILLER_10_133
*443 FILLER_10_139
*444 FILLER_10_141
*445 FILLER_10_15
*446 FILLER_10_153
*447 FILLER_10_165
*448 FILLER_10_177
*449 FILLER_10_189
*450 FILLER_10_195
*451 FILLER_10_197
*452 FILLER_10_209
*453 FILLER_10_221
*454 FILLER_10_233
*455 FILLER_10_245
*456 FILLER_10_251
*457 FILLER_10_253
*458 FILLER_10_265
*459 FILLER_10_27
*460 FILLER_10_277
*461 FILLER_10_289
*462 FILLER_10_29
*463 FILLER_10_3
*464 FILLER_10_301
*465 FILLER_10_307
*466 FILLER_10_309
*467 FILLER_10_321
*468 FILLER_10_333
*469 FILLER_10_345
*470 FILLER_10_357
*471 FILLER_10_363
*472 FILLER_10_365
*473 FILLER_10_377
*474 FILLER_10_389
*475 FILLER_10_401
*476 FILLER_10_41
*477 FILLER_10_53
*478 FILLER_10_65
*479 FILLER_10_77
*480 FILLER_10_83
*481 FILLER_10_85
*482 FILLER_10_97
*483 FILLER_11_105
*484 FILLER_11_111
*485 FILLER_11_113
*486 FILLER_11_125
*487 FILLER_11_137
*488 FILLER_11_149
*489 FILLER_11_15
*490 FILLER_11_161
*491 FILLER_11_167
*492 FILLER_11_169
*493 FILLER_11_181
*494 FILLER_11_186
*495 FILLER_11_198
*496 FILLER_11_210
*497 FILLER_11_222
*498 FILLER_11_225
*499 FILLER_11_237
*500 FILLER_11_249
*501 FILLER_11_261
*502 FILLER_11_27
*503 FILLER_11_273
*504 FILLER_11_279
*505 FILLER_11_281
*506 FILLER_11_293
*507 FILLER_11_3
*508 FILLER_11_305
*509 FILLER_11_317
*510 FILLER_11_329
*511 FILLER_11_335
*512 FILLER_11_337
*513 FILLER_11_349
*514 FILLER_11_361
*515 FILLER_11_373
*516 FILLER_11_385
*517 FILLER_11_39
*518 FILLER_11_391
*519 FILLER_11_393
*520 FILLER_11_405
*521 FILLER_11_51
*522 FILLER_11_55
*523 FILLER_11_57
*524 FILLER_11_69
*525 FILLER_11_81
*526 FILLER_11_93
*527 FILLER_12_109
*528 FILLER_12_121
*529 FILLER_12_133
*530 FILLER_12_139
*531 FILLER_12_141
*532 FILLER_12_15
*533 FILLER_12_153
*534 FILLER_12_165
*535 FILLER_12_173
*536 FILLER_12_179
*537 FILLER_12_185
*538 FILLER_12_193
*539 FILLER_12_197
*540 FILLER_12_209
*541 FILLER_12_221
*542 FILLER_12_233
*543 FILLER_12_245
*544 FILLER_12_251
*545 FILLER_12_253
*546 FILLER_12_265
*547 FILLER_12_27
*548 FILLER_12_277
*549 FILLER_12_289
*550 FILLER_12_29
*551 FILLER_12_3
*552 FILLER_12_301
*553 FILLER_12_307
*554 FILLER_12_309
*555 FILLER_12_321
*556 FILLER_12_333
*557 FILLER_12_345
*558 FILLER_12_357
*559 FILLER_12_363
*560 FILLER_12_365
*561 FILLER_12_377
*562 FILLER_12_389
*563 FILLER_12_401
*564 FILLER_12_41
*565 FILLER_12_53
*566 FILLER_12_65
*567 FILLER_12_77
*568 FILLER_12_83
*569 FILLER_12_85
*570 FILLER_12_97
*571 FILLER_13_105
*572 FILLER_13_111
*573 FILLER_13_113
*574 FILLER_13_125
*575 FILLER_13_137
*576 FILLER_13_149
*577 FILLER_13_15
*578 FILLER_13_161
*579 FILLER_13_167
*580 FILLER_13_169
*581 FILLER_13_195
*582 FILLER_13_207
*583 FILLER_13_219
*584 FILLER_13_223
*585 FILLER_13_238
*586 FILLER_13_250
*587 FILLER_13_262
*588 FILLER_13_27
*589 FILLER_13_274
*590 FILLER_13_281
*591 FILLER_13_293
*592 FILLER_13_3
*593 FILLER_13_305
*594 FILLER_13_317
*595 FILLER_13_329
*596 FILLER_13_335
*597 FILLER_13_337
*598 FILLER_13_349
*599 FILLER_13_361
*600 FILLER_13_373
*601 FILLER_13_385
*602 FILLER_13_39
*603 FILLER_13_391
*604 FILLER_13_393
*605 FILLER_13_405
*606 FILLER_13_51
*607 FILLER_13_55
*608 FILLER_13_57
*609 FILLER_13_69
*610 FILLER_13_81
*611 FILLER_13_93
*612 FILLER_14_109
*613 FILLER_14_121
*614 FILLER_14_133
*615 FILLER_14_139
*616 FILLER_14_141
*617 FILLER_14_15
*618 FILLER_14_153
*619 FILLER_14_157
*620 FILLER_14_168
*621 FILLER_14_176
*622 FILLER_14_185
*623 FILLER_14_193
*624 FILLER_14_197
*625 FILLER_14_209
*626 FILLER_14_221
*627 FILLER_14_233
*628 FILLER_14_245
*629 FILLER_14_251
*630 FILLER_14_253
*631 FILLER_14_265
*632 FILLER_14_27
*633 FILLER_14_277
*634 FILLER_14_289
*635 FILLER_14_29
*636 FILLER_14_3
*637 FILLER_14_301
*638 FILLER_14_307
*639 FILLER_14_309
*640 FILLER_14_321
*641 FILLER_14_333
*642 FILLER_14_345
*643 FILLER_14_357
*644 FILLER_14_363
*645 FILLER_14_365
*646 FILLER_14_377
*647 FILLER_14_389
*648 FILLER_14_401
*649 FILLER_14_41
*650 FILLER_14_53
*651 FILLER_14_65
*652 FILLER_14_77
*653 FILLER_14_83
*654 FILLER_14_85
*655 FILLER_14_97
*656 FILLER_15_100
*657 FILLER_15_113
*658 FILLER_15_125
*659 FILLER_15_137
*660 FILLER_15_149
*661 FILLER_15_15
*662 FILLER_15_161
*663 FILLER_15_167
*664 FILLER_15_169
*665 FILLER_15_181
*666 FILLER_15_193
*667 FILLER_15_205
*668 FILLER_15_217
*669 FILLER_15_223
*670 FILLER_15_225
*671 FILLER_15_232
*672 FILLER_15_244
*673 FILLER_15_256
*674 FILLER_15_268
*675 FILLER_15_27
*676 FILLER_15_281
*677 FILLER_15_293
*678 FILLER_15_3
*679 FILLER_15_305
*680 FILLER_15_317
*681 FILLER_15_329
*682 FILLER_15_335
*683 FILLER_15_337
*684 FILLER_15_349
*685 FILLER_15_361
*686 FILLER_15_373
*687 FILLER_15_385
*688 FILLER_15_39
*689 FILLER_15_391
*690 FILLER_15_393
*691 FILLER_15_405
*692 FILLER_15_51
*693 FILLER_15_55
*694 FILLER_15_57
*695 FILLER_15_69
*696 FILLER_15_81
*697 FILLER_15_87
*698 FILLER_16_109
*699 FILLER_16_121
*700 FILLER_16_133
*701 FILLER_16_139
*702 FILLER_16_141
*703 FILLER_16_15
*704 FILLER_16_153
*705 FILLER_16_165
*706 FILLER_16_177
*707 FILLER_16_189
*708 FILLER_16_195
*709 FILLER_16_197
*710 FILLER_16_209
*711 FILLER_16_221
*712 FILLER_16_233
*713 FILLER_16_245
*714 FILLER_16_251
*715 FILLER_16_253
*716 FILLER_16_265
*717 FILLER_16_27
*718 FILLER_16_277
*719 FILLER_16_289
*720 FILLER_16_29
*721 FILLER_16_3
*722 FILLER_16_301
*723 FILLER_16_307
*724 FILLER_16_309
*725 FILLER_16_321
*726 FILLER_16_333
*727 FILLER_16_345
*728 FILLER_16_357
*729 FILLER_16_363
*730 FILLER_16_365
*731 FILLER_16_377
*732 FILLER_16_389
*733 FILLER_16_401
*734 FILLER_16_41
*735 FILLER_16_53
*736 FILLER_16_65
*737 FILLER_16_77
*738 FILLER_16_83
*739 FILLER_16_85
*740 FILLER_16_97
*741 FILLER_17_103
*742 FILLER_17_111
*743 FILLER_17_113
*744 FILLER_17_125
*745 FILLER_17_137
*746 FILLER_17_149
*747 FILLER_17_15
*748 FILLER_17_161
*749 FILLER_17_167
*750 FILLER_17_176
*751 FILLER_17_188
*752 FILLER_17_200
*753 FILLER_17_212
*754 FILLER_17_218
*755 FILLER_17_237
*756 FILLER_17_249
*757 FILLER_17_258
*758 FILLER_17_27
*759 FILLER_17_273
*760 FILLER_17_279
*761 FILLER_17_281
*762 FILLER_17_293
*763 FILLER_17_3
*764 FILLER_17_305
*765 FILLER_17_317
*766 FILLER_17_329
*767 FILLER_17_335
*768 FILLER_17_337
*769 FILLER_17_349
*770 FILLER_17_361
*771 FILLER_17_373
*772 FILLER_17_385
*773 FILLER_17_39
*774 FILLER_17_391
*775 FILLER_17_393
*776 FILLER_17_51
*777 FILLER_17_55
*778 FILLER_17_57
*779 FILLER_17_69
*780 FILLER_17_79
*781 FILLER_17_87
*782 FILLER_17_91
*783 FILLER_18_106
*784 FILLER_18_112
*785 FILLER_18_120
*786 FILLER_18_132
*787 FILLER_18_141
*788 FILLER_18_149
*789 FILLER_18_15
*790 FILLER_18_157
*791 FILLER_18_167
*792 FILLER_18_179
*793 FILLER_18_191
*794 FILLER_18_195
*795 FILLER_18_197
*796 FILLER_18_209
*797 FILLER_18_213
*798 FILLER_18_223
*799 FILLER_18_235
*800 FILLER_18_247
*801 FILLER_18_251
*802 FILLER_18_27
*803 FILLER_18_270
*804 FILLER_18_282
*805 FILLER_18_29
*806 FILLER_18_294
*807 FILLER_18_3
*808 FILLER_18_306
*809 FILLER_18_309
*810 FILLER_18_321
*811 FILLER_18_333
*812 FILLER_18_345
*813 FILLER_18_357
*814 FILLER_18_363
*815 FILLER_18_365
*816 FILLER_18_377
*817 FILLER_18_389
*818 FILLER_18_401
*819 FILLER_18_41
*820 FILLER_18_53
*821 FILLER_18_65
*822 FILLER_18_77
*823 FILLER_18_83
*824 FILLER_18_85
*825 FILLER_18_94
*826 FILLER_19_104
*827 FILLER_19_113
*828 FILLER_19_124
*829 FILLER_19_128
*830 FILLER_19_136
*831 FILLER_19_142
*832 FILLER_19_148
*833 FILLER_19_15
*834 FILLER_19_160
*835 FILLER_19_169
*836 FILLER_19_181
*837 FILLER_19_193
*838 FILLER_19_205
*839 FILLER_19_217
*840 FILLER_19_223
*841 FILLER_19_230
*842 FILLER_19_242
*843 FILLER_19_254
*844 FILLER_19_27
*845 FILLER_19_270
*846 FILLER_19_278
*847 FILLER_19_281
*848 FILLER_19_293
*849 FILLER_19_3
*850 FILLER_19_305
*851 FILLER_19_317
*852 FILLER_19_329
*853 FILLER_19_335
*854 FILLER_19_337
*855 FILLER_19_349
*856 FILLER_19_361
*857 FILLER_19_373
*858 FILLER_19_385
*859 FILLER_19_39
*860 FILLER_19_391
*861 FILLER_19_393
*862 FILLER_19_405
*863 FILLER_19_51
*864 FILLER_19_55
*865 FILLER_19_57
*866 FILLER_19_69
*867 FILLER_19_73
*868 FILLER_19_82
*869 FILLER_19_90
*870 FILLER_19_98
*871 FILLER_1_105
*872 FILLER_1_111
*873 FILLER_1_113
*874 FILLER_1_125
*875 FILLER_1_137
*876 FILLER_1_149
*877 FILLER_1_15
*878 FILLER_1_161
*879 FILLER_1_167
*880 FILLER_1_169
*881 FILLER_1_181
*882 FILLER_1_193
*883 FILLER_1_205
*884 FILLER_1_217
*885 FILLER_1_223
*886 FILLER_1_225
*887 FILLER_1_237
*888 FILLER_1_249
*889 FILLER_1_261
*890 FILLER_1_27
*891 FILLER_1_273
*892 FILLER_1_279
*893 FILLER_1_281
*894 FILLER_1_293
*895 FILLER_1_3
*896 FILLER_1_305
*897 FILLER_1_317
*898 FILLER_1_329
*899 FILLER_1_335
*900 FILLER_1_337
*901 FILLER_1_349
*902 FILLER_1_361
*903 FILLER_1_373
*904 FILLER_1_385
*905 FILLER_1_39
*906 FILLER_1_391
*907 FILLER_1_393
*908 FILLER_1_405
*909 FILLER_1_51
*910 FILLER_1_55
*911 FILLER_1_57
*912 FILLER_1_69
*913 FILLER_1_81
*914 FILLER_1_93
*915 FILLER_20_103
*916 FILLER_20_130
*917 FILLER_20_138
*918 FILLER_20_145
*919 FILLER_20_15
*920 FILLER_20_157
*921 FILLER_20_169
*922 FILLER_20_181
*923 FILLER_20_185
*924 FILLER_20_200
*925 FILLER_20_212
*926 FILLER_20_224
*927 FILLER_20_236
*928 FILLER_20_248
*929 FILLER_20_253
*930 FILLER_20_265
*931 FILLER_20_27
*932 FILLER_20_277
*933 FILLER_20_285
*934 FILLER_20_29
*935 FILLER_20_294
*936 FILLER_20_3
*937 FILLER_20_306
*938 FILLER_20_309
*939 FILLER_20_321
*940 FILLER_20_333
*941 FILLER_20_345
*942 FILLER_20_357
*943 FILLER_20_363
*944 FILLER_20_365
*945 FILLER_20_377
*946 FILLER_20_389
*947 FILLER_20_397
*948 FILLER_20_41
*949 FILLER_20_53
*950 FILLER_20_61
*951 FILLER_20_69
*952 FILLER_20_82
*953 FILLER_20_85
*954 FILLER_21_100
*955 FILLER_21_119
*956 FILLER_21_131
*957 FILLER_21_143
*958 FILLER_21_15
*959 FILLER_21_155
*960 FILLER_21_167
*961 FILLER_21_176
*962 FILLER_21_188
*963 FILLER_21_197
*964 FILLER_21_201
*965 FILLER_21_214
*966 FILLER_21_222
*967 FILLER_21_225
*968 FILLER_21_237
*969 FILLER_21_249
*970 FILLER_21_261
*971 FILLER_21_27
*972 FILLER_21_273
*973 FILLER_21_279
*974 FILLER_21_281
*975 FILLER_21_293
*976 FILLER_21_3
*977 FILLER_21_310
*978 FILLER_21_322
*979 FILLER_21_334
*980 FILLER_21_337
*981 FILLER_21_349
*982 FILLER_21_361
*983 FILLER_21_373
*984 FILLER_21_385
*985 FILLER_21_39
*986 FILLER_21_391
*987 FILLER_21_393
*988 FILLER_21_405
*989 FILLER_21_46
*990 FILLER_21_54
*991 FILLER_21_57
*992 FILLER_21_77
*993 FILLER_21_89
*994 FILLER_22_109
*995 FILLER_22_115
*996 FILLER_22_125
*997 FILLER_22_137
*998 FILLER_22_141
*999 FILLER_22_153
*1000 FILLER_22_165
*1001 FILLER_22_177
*1002 FILLER_22_189
*1003 FILLER_22_19
*1004 FILLER_22_195
*1005 FILLER_22_197
*1006 FILLER_22_209
*1007 FILLER_22_221
*1008 FILLER_22_233
*1009 FILLER_22_253
*1010 FILLER_22_265
*1011 FILLER_22_27
*1012 FILLER_22_277
*1013 FILLER_22_29
*1014 FILLER_22_291
*1015 FILLER_22_303
*1016 FILLER_22_307
*1017 FILLER_22_309
*1018 FILLER_22_321
*1019 FILLER_22_333
*1020 FILLER_22_345
*1021 FILLER_22_357
*1022 FILLER_22_363
*1023 FILLER_22_365
*1024 FILLER_22_377
*1025 FILLER_22_389
*1026 FILLER_22_401
*1027 FILLER_22_51
*1028 FILLER_22_63
*1029 FILLER_22_7
*1030 FILLER_22_75
*1031 FILLER_22_83
*1032 FILLER_22_85
*1033 FILLER_22_97
*1034 FILLER_23_105
*1035 FILLER_23_11
*1036 FILLER_23_111
*1037 FILLER_23_113
*1038 FILLER_23_125
*1039 FILLER_23_137
*1040 FILLER_23_149
*1041 FILLER_23_161
*1042 FILLER_23_167
*1043 FILLER_23_169
*1044 FILLER_23_177
*1045 FILLER_23_189
*1046 FILLER_23_201
*1047 FILLER_23_213
*1048 FILLER_23_221
*1049 FILLER_23_225
*1050 FILLER_23_237
*1051 FILLER_23_24
*1052 FILLER_23_249
*1053 FILLER_23_258
*1054 FILLER_23_270
*1055 FILLER_23_278
*1056 FILLER_23_286
*1057 FILLER_23_3
*1058 FILLER_23_304
*1059 FILLER_23_316
*1060 FILLER_23_328
*1061 FILLER_23_337
*1062 FILLER_23_349
*1063 FILLER_23_361
*1064 FILLER_23_373
*1065 FILLER_23_385
*1066 FILLER_23_391
*1067 FILLER_23_393
*1068 FILLER_23_405
*1069 FILLER_23_52
*1070 FILLER_23_57
*1071 FILLER_23_69
*1072 FILLER_23_81
*1073 FILLER_23_93
*1074 FILLER_24_107
*1075 FILLER_24_120
*1076 FILLER_24_132
*1077 FILLER_24_141
*1078 FILLER_24_15
*1079 FILLER_24_153
*1080 FILLER_24_165
*1081 FILLER_24_177
*1082 FILLER_24_189
*1083 FILLER_24_195
*1084 FILLER_24_197
*1085 FILLER_24_201
*1086 FILLER_24_205
*1087 FILLER_24_217
*1088 FILLER_24_229
*1089 FILLER_24_244
*1090 FILLER_24_253
*1091 FILLER_24_265
*1092 FILLER_24_27
*1093 FILLER_24_271
*1094 FILLER_24_282
*1095 FILLER_24_29
*1096 FILLER_24_3
*1097 FILLER_24_307
*1098 FILLER_24_309
*1099 FILLER_24_321
*1100 FILLER_24_333
*1101 FILLER_24_345
*1102 FILLER_24_357
*1103 FILLER_24_363
*1104 FILLER_24_365
*1105 FILLER_24_377
*1106 FILLER_24_389
*1107 FILLER_24_401
*1108 FILLER_24_41
*1109 FILLER_24_47
*1110 FILLER_24_51
*1111 FILLER_24_63
*1112 FILLER_24_75
*1113 FILLER_24_83
*1114 FILLER_24_85
*1115 FILLER_24_97
*1116 FILLER_25_105
*1117 FILLER_25_111
*1118 FILLER_25_121
*1119 FILLER_25_146
*1120 FILLER_25_15
*1121 FILLER_25_158
*1122 FILLER_25_166
*1123 FILLER_25_169
*1124 FILLER_25_184
*1125 FILLER_25_196
*1126 FILLER_25_208
*1127 FILLER_25_220
*1128 FILLER_25_225
*1129 FILLER_25_231
*1130 FILLER_25_237
*1131 FILLER_25_241
*1132 FILLER_25_247
*1133 FILLER_25_259
*1134 FILLER_25_27
*1135 FILLER_25_271
*1136 FILLER_25_279
*1137 FILLER_25_281
*1138 FILLER_25_289
*1139 FILLER_25_295
*1140 FILLER_25_3
*1141 FILLER_25_307
*1142 FILLER_25_319
*1143 FILLER_25_331
*1144 FILLER_25_335
*1145 FILLER_25_337
*1146 FILLER_25_349
*1147 FILLER_25_361
*1148 FILLER_25_373
*1149 FILLER_25_385
*1150 FILLER_25_39
*1151 FILLER_25_391
*1152 FILLER_25_393
*1153 FILLER_25_405
*1154 FILLER_25_51
*1155 FILLER_25_55
*1156 FILLER_25_57
*1157 FILLER_25_69
*1158 FILLER_25_81
*1159 FILLER_25_93
*1160 FILLER_25_99
*1161 FILLER_26_103
*1162 FILLER_26_114
*1163 FILLER_26_137
*1164 FILLER_26_141
*1165 FILLER_26_15
*1166 FILLER_26_153
*1167 FILLER_26_165
*1168 FILLER_26_169
*1169 FILLER_26_191
*1170 FILLER_26_195
*1171 FILLER_26_197
*1172 FILLER_26_203
*1173 FILLER_26_215
*1174 FILLER_26_219
*1175 FILLER_26_223
*1176 FILLER_26_235
*1177 FILLER_26_247
*1178 FILLER_26_251
*1179 FILLER_26_253
*1180 FILLER_26_265
*1181 FILLER_26_27
*1182 FILLER_26_277
*1183 FILLER_26_289
*1184 FILLER_26_29
*1185 FILLER_26_3
*1186 FILLER_26_301
*1187 FILLER_26_307
*1188 FILLER_26_309
*1189 FILLER_26_321
*1190 FILLER_26_333
*1191 FILLER_26_345
*1192 FILLER_26_357
*1193 FILLER_26_363
*1194 FILLER_26_365
*1195 FILLER_26_377
*1196 FILLER_26_389
*1197 FILLER_26_401
*1198 FILLER_26_41
*1199 FILLER_26_53
*1200 FILLER_26_65
*1201 FILLER_26_77
*1202 FILLER_26_83
*1203 FILLER_26_85
*1204 FILLER_26_97
*1205 FILLER_27_113
*1206 FILLER_27_124
*1207 FILLER_27_146
*1208 FILLER_27_158
*1209 FILLER_27_166
*1210 FILLER_27_169
*1211 FILLER_27_177
*1212 FILLER_27_18
*1213 FILLER_27_185
*1214 FILLER_27_197
*1215 FILLER_27_206
*1216 FILLER_27_218
*1217 FILLER_27_225
*1218 FILLER_27_237
*1219 FILLER_27_249
*1220 FILLER_27_261
*1221 FILLER_27_273
*1222 FILLER_27_279
*1223 FILLER_27_281
*1224 FILLER_27_293
*1225 FILLER_27_30
*1226 FILLER_27_305
*1227 FILLER_27_317
*1228 FILLER_27_329
*1229 FILLER_27_335
*1230 FILLER_27_337
*1231 FILLER_27_349
*1232 FILLER_27_361
*1233 FILLER_27_373
*1234 FILLER_27_385
*1235 FILLER_27_391
*1236 FILLER_27_393
*1237 FILLER_27_405
*1238 FILLER_27_42
*1239 FILLER_27_54
*1240 FILLER_27_57
*1241 FILLER_27_6
*1242 FILLER_27_65
*1243 FILLER_27_81
*1244 FILLER_27_93
*1245 FILLER_28_109
*1246 FILLER_28_121
*1247 FILLER_28_13
*1248 FILLER_28_133
*1249 FILLER_28_139
*1250 FILLER_28_141
*1251 FILLER_28_153
*1252 FILLER_28_165
*1253 FILLER_28_177
*1254 FILLER_28_189
*1255 FILLER_28_195
*1256 FILLER_28_201
*1257 FILLER_28_21
*1258 FILLER_28_213
*1259 FILLER_28_225
*1260 FILLER_28_237
*1261 FILLER_28_249
*1262 FILLER_28_253
*1263 FILLER_28_265
*1264 FILLER_28_27
*1265 FILLER_28_277
*1266 FILLER_28_281
*1267 FILLER_28_285
*1268 FILLER_28_29
*1269 FILLER_28_298
*1270 FILLER_28_306
*1271 FILLER_28_309
*1272 FILLER_28_321
*1273 FILLER_28_333
*1274 FILLER_28_345
*1275 FILLER_28_357
*1276 FILLER_28_363
*1277 FILLER_28_365
*1278 FILLER_28_37
*1279 FILLER_28_377
*1280 FILLER_28_389
*1281 FILLER_28_401
*1282 FILLER_28_45
*1283 FILLER_28_57
*1284 FILLER_28_69
*1285 FILLER_28_7
*1286 FILLER_28_73
*1287 FILLER_28_81
*1288 FILLER_28_85
*1289 FILLER_28_89
*1290 FILLER_28_97
*1291 FILLER_29_101
*1292 FILLER_29_109
*1293 FILLER_29_113
*1294 FILLER_29_125
*1295 FILLER_29_137
*1296 FILLER_29_149
*1297 FILLER_29_161
*1298 FILLER_29_167
*1299 FILLER_29_169
*1300 FILLER_29_181
*1301 FILLER_29_189
*1302 FILLER_29_207
*1303 FILLER_29_219
*1304 FILLER_29_223
*1305 FILLER_29_225
*1306 FILLER_29_237
*1307 FILLER_29_249
*1308 FILLER_29_261
*1309 FILLER_29_273
*1310 FILLER_29_279
*1311 FILLER_29_284
*1312 FILLER_29_296
*1313 FILLER_29_308
*1314 FILLER_29_32
*1315 FILLER_29_320
*1316 FILLER_29_332
*1317 FILLER_29_337
*1318 FILLER_29_349
*1319 FILLER_29_361
*1320 FILLER_29_373
*1321 FILLER_29_385
*1322 FILLER_29_391
*1323 FILLER_29_393
*1324 FILLER_29_405
*1325 FILLER_29_60
*1326 FILLER_29_7
*1327 FILLER_29_72
*1328 FILLER_29_80
*1329 FILLER_29_90
*1330 FILLER_2_109
*1331 FILLER_2_121
*1332 FILLER_2_133
*1333 FILLER_2_139
*1334 FILLER_2_141
*1335 FILLER_2_15
*1336 FILLER_2_153
*1337 FILLER_2_165
*1338 FILLER_2_177
*1339 FILLER_2_189
*1340 FILLER_2_195
*1341 FILLER_2_197
*1342 FILLER_2_209
*1343 FILLER_2_221
*1344 FILLER_2_233
*1345 FILLER_2_245
*1346 FILLER_2_251
*1347 FILLER_2_253
*1348 FILLER_2_265
*1349 FILLER_2_27
*1350 FILLER_2_277
*1351 FILLER_2_289
*1352 FILLER_2_29
*1353 FILLER_2_3
*1354 FILLER_2_301
*1355 FILLER_2_307
*1356 FILLER_2_309
*1357 FILLER_2_321
*1358 FILLER_2_333
*1359 FILLER_2_345
*1360 FILLER_2_357
*1361 FILLER_2_363
*1362 FILLER_2_365
*1363 FILLER_2_377
*1364 FILLER_2_389
*1365 FILLER_2_401
*1366 FILLER_2_41
*1367 FILLER_2_53
*1368 FILLER_2_65
*1369 FILLER_2_77
*1370 FILLER_2_83
*1371 FILLER_2_85
*1372 FILLER_2_97
*1373 FILLER_30_104
*1374 FILLER_30_116
*1375 FILLER_30_128
*1376 FILLER_30_141
*1377 FILLER_30_153
*1378 FILLER_30_165
*1379 FILLER_30_177
*1380 FILLER_30_189
*1381 FILLER_30_195
*1382 FILLER_30_214
*1383 FILLER_30_220
*1384 FILLER_30_226
*1385 FILLER_30_234
*1386 FILLER_30_246
*1387 FILLER_30_260
*1388 FILLER_30_268
*1389 FILLER_30_274
*1390 FILLER_30_293
*1391 FILLER_30_305
*1392 FILLER_30_309
*1393 FILLER_30_321
*1394 FILLER_30_333
*1395 FILLER_30_34
*1396 FILLER_30_345
*1397 FILLER_30_357
*1398 FILLER_30_363
*1399 FILLER_30_365
*1400 FILLER_30_377
*1401 FILLER_30_38
*1402 FILLER_30_389
*1403 FILLER_30_401
*1404 FILLER_30_65
*1405 FILLER_30_77
*1406 FILLER_30_83
*1407 FILLER_30_85
*1408 FILLER_31_105
*1409 FILLER_31_111
*1410 FILLER_31_113
*1411 FILLER_31_125
*1412 FILLER_31_137
*1413 FILLER_31_144
*1414 FILLER_31_152
*1415 FILLER_31_157
*1416 FILLER_31_165
*1417 FILLER_31_169
*1418 FILLER_31_181
*1419 FILLER_31_189
*1420 FILLER_31_196
*1421 FILLER_31_204
*1422 FILLER_31_216
*1423 FILLER_31_225
*1424 FILLER_31_237
*1425 FILLER_31_249
*1426 FILLER_31_26
*1427 FILLER_31_261
*1428 FILLER_31_273
*1429 FILLER_31_279
*1430 FILLER_31_281
*1431 FILLER_31_293
*1432 FILLER_31_305
*1433 FILLER_31_317
*1434 FILLER_31_329
*1435 FILLER_31_335
*1436 FILLER_31_337
*1437 FILLER_31_349
*1438 FILLER_31_361
*1439 FILLER_31_373
*1440 FILLER_31_38
*1441 FILLER_31_385
*1442 FILLER_31_391
*1443 FILLER_31_393
*1444 FILLER_31_405
*1445 FILLER_31_50
*1446 FILLER_31_57
*1447 FILLER_31_69
*1448 FILLER_31_81
*1449 FILLER_31_93
*1450 FILLER_32_109
*1451 FILLER_32_121
*1452 FILLER_32_133
*1453 FILLER_32_139
*1454 FILLER_32_15
*1455 FILLER_32_151
*1456 FILLER_32_165
*1457 FILLER_32_177
*1458 FILLER_32_189
*1459 FILLER_32_195
*1460 FILLER_32_197
*1461 FILLER_32_209
*1462 FILLER_32_221
*1463 FILLER_32_233
*1464 FILLER_32_245
*1465 FILLER_32_251
*1466 FILLER_32_258
*1467 FILLER_32_27
*1468 FILLER_32_270
*1469 FILLER_32_282
*1470 FILLER_32_29
*1471 FILLER_32_294
*1472 FILLER_32_3
*1473 FILLER_32_306
*1474 FILLER_32_309
*1475 FILLER_32_321
*1476 FILLER_32_333
*1477 FILLER_32_345
*1478 FILLER_32_357
*1479 FILLER_32_363
*1480 FILLER_32_365
*1481 FILLER_32_377
*1482 FILLER_32_389
*1483 FILLER_32_401
*1484 FILLER_32_41
*1485 FILLER_32_53
*1486 FILLER_32_65
*1487 FILLER_32_77
*1488 FILLER_32_83
*1489 FILLER_32_85
*1490 FILLER_32_97
*1491 FILLER_33_110
*1492 FILLER_33_113
*1493 FILLER_33_125
*1494 FILLER_33_136
*1495 FILLER_33_144
*1496 FILLER_33_15
*1497 FILLER_33_150
*1498 FILLER_33_162
*1499 FILLER_33_169
*1500 FILLER_33_181
*1501 FILLER_33_187
*1502 FILLER_33_193
*1503 FILLER_33_205
*1504 FILLER_33_217
*1505 FILLER_33_223
*1506 FILLER_33_225
*1507 FILLER_33_237
*1508 FILLER_33_249
*1509 FILLER_33_261
*1510 FILLER_33_27
*1511 FILLER_33_273
*1512 FILLER_33_279
*1513 FILLER_33_281
*1514 FILLER_33_293
*1515 FILLER_33_3
*1516 FILLER_33_305
*1517 FILLER_33_317
*1518 FILLER_33_329
*1519 FILLER_33_335
*1520 FILLER_33_337
*1521 FILLER_33_349
*1522 FILLER_33_361
*1523 FILLER_33_373
*1524 FILLER_33_385
*1525 FILLER_33_39
*1526 FILLER_33_391
*1527 FILLER_33_393
*1528 FILLER_33_405
*1529 FILLER_33_51
*1530 FILLER_33_55
*1531 FILLER_33_57
*1532 FILLER_33_69
*1533 FILLER_33_81
*1534 FILLER_33_89
*1535 FILLER_34_108
*1536 FILLER_34_120
*1537 FILLER_34_128
*1538 FILLER_34_138
*1539 FILLER_34_141
*1540 FILLER_34_153
*1541 FILLER_34_165
*1542 FILLER_34_177
*1543 FILLER_34_18
*1544 FILLER_34_189
*1545 FILLER_34_195
*1546 FILLER_34_204
*1547 FILLER_34_216
*1548 FILLER_34_228
*1549 FILLER_34_240
*1550 FILLER_34_253
*1551 FILLER_34_26
*1552 FILLER_34_261
*1553 FILLER_34_273
*1554 FILLER_34_285
*1555 FILLER_34_29
*1556 FILLER_34_297
*1557 FILLER_34_305
*1558 FILLER_34_309
*1559 FILLER_34_321
*1560 FILLER_34_333
*1561 FILLER_34_345
*1562 FILLER_34_357
*1563 FILLER_34_363
*1564 FILLER_34_365
*1565 FILLER_34_377
*1566 FILLER_34_389
*1567 FILLER_34_401
*1568 FILLER_34_41
*1569 FILLER_34_53
*1570 FILLER_34_6
*1571 FILLER_34_65
*1572 FILLER_34_77
*1573 FILLER_34_83
*1574 FILLER_34_85
*1575 FILLER_34_91
*1576 FILLER_34_99
*1577 FILLER_35_105
*1578 FILLER_35_111
*1579 FILLER_35_113
*1580 FILLER_35_12
*1581 FILLER_35_125
*1582 FILLER_35_137
*1583 FILLER_35_145
*1584 FILLER_35_154
*1585 FILLER_35_166
*1586 FILLER_35_169
*1587 FILLER_35_181
*1588 FILLER_35_193
*1589 FILLER_35_198
*1590 FILLER_35_210
*1591 FILLER_35_222
*1592 FILLER_35_225
*1593 FILLER_35_237
*1594 FILLER_35_24
*1595 FILLER_35_249
*1596 FILLER_35_261
*1597 FILLER_35_273
*1598 FILLER_35_279
*1599 FILLER_35_281
*1600 FILLER_35_293
*1601 FILLER_35_305
*1602 FILLER_35_317
*1603 FILLER_35_329
*1604 FILLER_35_335
*1605 FILLER_35_337
*1606 FILLER_35_349
*1607 FILLER_35_36
*1608 FILLER_35_361
*1609 FILLER_35_373
*1610 FILLER_35_385
*1611 FILLER_35_391
*1612 FILLER_35_393
*1613 FILLER_35_405
*1614 FILLER_35_48
*1615 FILLER_35_57
*1616 FILLER_35_69
*1617 FILLER_35_77
*1618 FILLER_36_113
*1619 FILLER_36_125
*1620 FILLER_36_137
*1621 FILLER_36_141
*1622 FILLER_36_145
*1623 FILLER_36_15
*1624 FILLER_36_153
*1625 FILLER_36_165
*1626 FILLER_36_177
*1627 FILLER_36_189
*1628 FILLER_36_212
*1629 FILLER_36_224
*1630 FILLER_36_232
*1631 FILLER_36_243
*1632 FILLER_36_253
*1633 FILLER_36_268
*1634 FILLER_36_27
*1635 FILLER_36_280
*1636 FILLER_36_29
*1637 FILLER_36_292
*1638 FILLER_36_3
*1639 FILLER_36_304
*1640 FILLER_36_309
*1641 FILLER_36_321
*1642 FILLER_36_333
*1643 FILLER_36_345
*1644 FILLER_36_357
*1645 FILLER_36_363
*1646 FILLER_36_365
*1647 FILLER_36_377
*1648 FILLER_36_389
*1649 FILLER_36_401
*1650 FILLER_36_41
*1651 FILLER_36_53
*1652 FILLER_36_65
*1653 FILLER_36_77
*1654 FILLER_36_83
*1655 FILLER_36_85
*1656 FILLER_37_107
*1657 FILLER_37_111
*1658 FILLER_37_118
*1659 FILLER_37_130
*1660 FILLER_37_136
*1661 FILLER_37_143
*1662 FILLER_37_15
*1663 FILLER_37_155
*1664 FILLER_37_167
*1665 FILLER_37_169
*1666 FILLER_37_181
*1667 FILLER_37_193
*1668 FILLER_37_217
*1669 FILLER_37_221
*1670 FILLER_37_225
*1671 FILLER_37_229
*1672 FILLER_37_235
*1673 FILLER_37_247
*1674 FILLER_37_259
*1675 FILLER_37_27
*1676 FILLER_37_271
*1677 FILLER_37_279
*1678 FILLER_37_288
*1679 FILLER_37_3
*1680 FILLER_37_300
*1681 FILLER_37_312
*1682 FILLER_37_324
*1683 FILLER_37_337
*1684 FILLER_37_349
*1685 FILLER_37_361
*1686 FILLER_37_373
*1687 FILLER_37_385
*1688 FILLER_37_39
*1689 FILLER_37_391
*1690 FILLER_37_393
*1691 FILLER_37_405
*1692 FILLER_37_51
*1693 FILLER_37_55
*1694 FILLER_37_57
*1695 FILLER_37_69
*1696 FILLER_37_81
*1697 FILLER_37_87
*1698 FILLER_37_98
*1699 FILLER_38_109
*1700 FILLER_38_121
*1701 FILLER_38_129
*1702 FILLER_38_15
*1703 FILLER_38_153
*1704 FILLER_38_157
*1705 FILLER_38_165
*1706 FILLER_38_177
*1707 FILLER_38_189
*1708 FILLER_38_195
*1709 FILLER_38_197
*1710 FILLER_38_209
*1711 FILLER_38_222
*1712 FILLER_38_230
*1713 FILLER_38_245
*1714 FILLER_38_251
*1715 FILLER_38_253
*1716 FILLER_38_265
*1717 FILLER_38_27
*1718 FILLER_38_288
*1719 FILLER_38_29
*1720 FILLER_38_3
*1721 FILLER_38_300