*SPEF "ieee 1481-1999"
*DESIGN "SarsanstepsNada_e8"
*DATE "14:16:36 Tuesday September 16, 2025"
*VENDOR "The OpenROAD Project"
*PROGRAM "OpenROAD"
*VERSION "edf00dff99f6c40d67a30c0e22a8191c5d2ed9d6"
*DESIGN_FLOW "NAME_SCOPE LOCAL" "PIN_CAP NONE"
*DIVIDER /
*DELIMITER :
*BUS_DELIMITER []
*T_UNIT 1 NS
*C_UNIT 1 PF
*R_UNIT 1 OHM
*L_UNIT 1 HENRY

*NAME_MAP
*1 A[0]
*2 A[1]
*3 B[0]
*4 B[1]
*5 net5
*6 net6
*7 P[2]
*8 net4
*11 net1
*12 net2
*13 net3
*14 pp1
*15 FILLER_0_15
*16 FILLER_0_27
*17 FILLER_0_29
*18 FILLER_0_3
*19 FILLER_0_41
*20 FILLER_0_53
*21 FILLER_0_57
*22 FILLER_0_69
*23 FILLER_1_15
*24 FILLER_1_27
*25 FILLER_1_3
*26 FILLER_1_39
*27 FILLER_1_51
*28 FILLER_1_55
*29 FILLER_1_57
*30 FILLER_1_69
*31 FILLER_2_15
*32 FILLER_2_27
*33 FILLER_2_29
*34 FILLER_2_3
*35 FILLER_2_41
*36 FILLER_2_53
*37 FILLER_2_65
*38 FILLER_2_77
*39 FILLER_3_15
*40 FILLER_3_22
*41 FILLER_3_3
*42 FILLER_3_34
*43 FILLER_3_46
*44 FILLER_3_54
*45 FILLER_3_57
*46 FILLER_3_69
*47 FILLER_4_17
*48 FILLER_4_25
*49 FILLER_4_29
*50 FILLER_4_41
*51 FILLER_4_53
*52 FILLER_4_6
*53 FILLER_4_65
*54 FILLER_5_18
*55 FILLER_5_30
*56 FILLER_5_42
*57 FILLER_5_54
*58 FILLER_5_57
*59 FILLER_5_6
*60 FILLER_5_69
*61 FILLER_5_77
*62 FILLER_6_18
*63 FILLER_6_26
*64 FILLER_6_29
*65 FILLER_6_41
*66 FILLER_6_53
*67 FILLER_6_6
*68 FILLER_6_65
*69 FILLER_6_77
*70 FILLER_7_15
*71 FILLER_7_27
*72 FILLER_7_3
*73 FILLER_7_39
*74 FILLER_7_51
*75 FILLER_7_55
*76 FILLER_7_57
*77 FILLER_7_69
*78 FILLER_8_15
*79 FILLER_8_27
*80 FILLER_8_29
*81 FILLER_8_3
*82 FILLER_8_41
*83 FILLER_8_53
*84 FILLER_8_65
*85 FILLER_8_77
*86 FILLER_9_15
*87 FILLER_9_27
*88 FILLER_9_29
*89 FILLER_9_3
*90 FILLER_9_41
*91 FILLER_9_53
*92 FILLER_9_57
*93 FILLER_9_69
*94 PHY_EDGE_ROW_0_Left_10
*95 PHY_EDGE_ROW_0_Right_0
*96 PHY_EDGE_ROW_1_Left_11
*97 PHY_EDGE_ROW_1_Right_1
*98 PHY_EDGE_ROW_2_Left_12
*99 PHY_EDGE_ROW_2_Right_2
*100 PHY_EDGE_ROW_3_Left_13
*101 PHY_EDGE_ROW_3_Right_3
*102 PHY_EDGE_ROW_4_Left_14
*103 PHY_EDGE_ROW_4_Right_4
*104 PHY_EDGE_ROW_5_Left_15
*105 PHY_EDGE_ROW_5_Right_5
*106 PHY_EDGE_ROW_6_Left_16
*107 PHY_EDGE_ROW_6_Right_6
*108 PHY_EDGE_ROW_7_Left_17
*109 PHY_EDGE_ROW_7_Right_7
*110 PHY_EDGE_ROW_8_Left_18
*111 PHY_EDGE_ROW_8_Right_8
*112 PHY_EDGE_ROW_9_Left_19
*113 PHY_EDGE_ROW_9_Right_9
*114 SarsanstepsNada_e8_4
*115 SarsanstepsNada_e8_5
*116 SarsanstepsNada_e8_6
*117 TAP_TAPCELL_ROW_0_20
*118 TAP_TAPCELL_ROW_0_21
*119 TAP_TAPCELL_ROW_1_22
*120 TAP_TAPCELL_ROW_2_23
*121 TAP_TAPCELL_ROW_3_24
*122 TAP_TAPCELL_ROW_4_25
*123 TAP_TAPCELL_ROW_5_26
*124 TAP_TAPCELL_ROW_6_27
*125 TAP_TAPCELL_ROW_7_28
*126 TAP_TAPCELL_ROW_8_29
*127 TAP_TAPCELL_ROW_9_30
*128 TAP_TAPCELL_ROW_9_31
*129 _0_
*130 _4_
*131 input1
*132 input2
*133 output3

*PORTS
A[0] I
A[1] I
B[0] I
B[1] I
P[0] O
P[1] O
P[2] O
P[3] O

*D_NET *2 0.000688268
*CONN
*P A[1] I
*I *131:A I *D sky130_fd_sc_hd__clkbuf_1
*CAP
1 A[1] 0.000329138
2 *131:A 0.000329138
3 *131:A P[1] 2.99915e-05
*RES
1 A[1] *131:A 21.6946 
*END

*D_NET *4 0.000530488
*CONN
*P B[1] I
*I *132:A I *D sky130_fd_sc_hd__clkbuf_1
*CAP
1 B[1] 0.000246058
2 *132:A 0.000246058
3 *132:A P[1] 2.87684e-05
4 *132:A *129:A 9.60337e-06
*RES
1 B[1] *132:A 18.73 
*END

*D_NET *5 0.000506863
*CONN
*P P[0] O
*I *115:LO O *D sky130_fd_sc_hd__conb_1
*CAP
1 P[0] 0.00021185
2 *115:LO 0.00021185
3 P[0] P[3] 8.31618e-05
*RES
1 *115:LO P[0] 18.73 
*END

*D_NET *6 0.000640458
*CONN
*P P[1] O
*I *116:HI O *D sky130_fd_sc_hd__conb_1
*CAP
1 P[1] 0.000290849
2 *116:HI 0.000290849
3 P[1] *129:A 0
4 *131:A P[1] 2.99915e-05
5 *132:A P[1] 2.87684e-05
*RES
1 *116:HI P[1] 21.0874 
*END

*D_NET *7 0.000639851
*CONN
*P P[2] O
*I *133:X O *D sky130_fd_sc_hd__buf_2
*CAP
1 P[2] 0.000245685
2 *133:X 0.000245685
3 P[2] P[3] 8.57347e-05
4 P[2] *13:12 6.27457e-05
*RES
1 *133:X P[2] 19.4092 
*END

*D_NET *8 0.00052032
*CONN
*P P[3] O
*I *114:LO O *D sky130_fd_sc_hd__conb_1
*CAP
1 P[3] 0.000175712
2 *114:LO 0.000175712
3 P[0] P[3] 8.31618e-05
4 P[2] P[3] 8.57347e-05
*RES
1 *114:LO P[3] 18.73 
*END

*D_NET *11 0.00071863
*CONN
*I *129:B I *D sky130_fd_sc_hd__and2_1
*I *131:X O *D sky130_fd_sc_hd__clkbuf_1
*CAP
1 *129:B 0.000199303
2 *131:X 0.000199303
3 *129:B *129:A 0.000320024
*RES
1 *131:X *129:B 23.1536 
*END

*D_NET *12 0.00102258
*CONN
*I *129:A I *D sky130_fd_sc_hd__and2_1
*I *132:X O *D sky130_fd_sc_hd__clkbuf_1
*CAP
1 *129:A 0.000346475
2 *132:X 0.000346475
3 P[1] *129:A 0
4 *129:B *129:A 0.000320024
5 *132:A *129:A 9.60337e-06
*RES
1 *132:X *129:A 34.6714 
*END

*D_NET *13 0.00337081
*CONN
*I *133:A I *D sky130_fd_sc_hd__buf_2
*I *130:X O *D sky130_fd_sc_hd__clkbuf_1
*CAP
1 *133:A 0
2 *130:X 0.00165403
3 *13:12 0.00165403
4 P[2] *13:12 6.27457e-05
*RES
1 *130:X *13:12 44.2821 
2 *13:12 *133:A 9.3 
*END

*D_NET *14 0.000437016
*CONN
*I *130:A I *D sky130_fd_sc_hd__clkbuf_1
*I *129:X O *D sky130_fd_sc_hd__and2_1
*CAP
1 *130:A 0.000218508
2 *129:X 0.000218508
*RES
1 *129:X *130:A 30.6 
*END
