*SPEF "ieee 1481-1999"
*DESIGN "mult4_SARSA_RUIDO_e9_SARSA_RUIDO_e9_SarsaNada_e6_SARSA_RUIDO_e9"
*DATE "18:39:42 Tuesday September 16, 2025"
*VENDOR "The OpenROAD Project"
*PROGRAM "OpenROAD"
*VERSION "edf00dff99f6c40d67a30c0e22a8191c5d2ed9d6"
*DESIGN_FLOW "NAME_SCOPE LOCAL" "PIN_CAP NONE"
*DIVIDER /
*DELIMITER :
*BUS_DELIMITER []
*T_UNIT 1 NS
*C_UNIT 1 PF
*R_UNIT 1 OHM
*L_UNIT 1 HENRY

*NAME_MAP
*1 A[0]
*2 A[1]
*3 A[2]
*4 A[3]
*5 B[0]
*6 B[1]
*7 B[2]
*8 B[3]
*9 P[0]
*10 P[1]
*11 P[2]
*12 P[3]
*13 P[4]
*14 P[5]
*15 P[6]
*16 P[7]
*19 _000_
*20 _001_
*21 _002_
*22 _003_
*23 _004_
*24 _005_
*25 _006_
*26 _007_
*27 _008_
*28 _009_
*29 _010_
*30 _011_
*31 _012_
*32 _013_
*33 _014_
*34 _015_
*35 _016_
*36 _017_
*37 _018_
*38 _019_
*39 _020_
*40 _021_
*41 _022_
*42 _023_
*43 _024_
*44 _025_
*45 _026_
*46 _027_
*47 _028_
*48 _029_
*49 _030_
*50 _031_
*51 _032_
*52 _033_
*53 _034_
*54 _035_
*55 _036_
*56 _037_
*57 _038_
*58 _039_
*59 _040_
*60 _041_
*61 _042_
*62 _043_
*63 _044_
*64 _045_
*65 _046_
*66 _047_
*67 net1
*68 net10
*69 net11
*70 net12
*71 net13
*72 net14
*73 net15
*74 net16
*75 net17
*76 net2
*77 net3
*78 net4
*79 net5
*80 net6
*81 net7
*82 net8
*83 net9
*84 FILLER_0_15
*85 FILLER_0_23
*86 FILLER_0_29
*87 FILLER_0_3
*88 FILLER_0_34
*89 FILLER_0_57
*90 FILLER_0_72
*91 FILLER_0_80
*92 FILLER_1_11
*93 FILLER_1_20
*94 FILLER_1_26
*95 FILLER_1_3
*96 FILLER_1_44
*97 FILLER_1_64
*98 FILLER_1_76
*99 FILLER_2_21
*100 FILLER_2_27
*101 FILLER_2_29
*102 FILLER_2_3
*103 FILLER_2_41
*104 FILLER_2_53
*105 FILLER_2_68
*106 FILLER_2_9
*107 FILLER_3_11
*108 FILLER_3_23
*109 FILLER_3_3
*110 FILLER_3_55
*111 FILLER_3_70
*112 FILLER_3_78
*113 FILLER_4_15
*114 FILLER_4_27
*115 FILLER_4_29
*116 FILLER_4_3
*117 FILLER_4_44
*118 FILLER_4_56
*119 FILLER_5_15
*120 FILLER_5_27
*121 FILLER_5_3
*122 FILLER_5_39
*123 FILLER_5_54
*124 FILLER_5_57
*125 FILLER_5_65
*126 FILLER_6_25
*127 FILLER_6_3
*128 FILLER_6_43
*129 FILLER_6_55
*130 FILLER_6_66
*131 FILLER_6_75
*132 FILLER_6_9
*133 FILLER_7_15
*134 FILLER_7_27
*135 FILLER_7_3
*136 FILLER_7_33
*137 FILLER_7_45
*138 FILLER_7_55
*139 FILLER_7_60
*140 FILLER_7_66
*141 FILLER_7_78
*142 FILLER_7_9
*143 FILLER_8_11
*144 FILLER_8_16
*145 FILLER_8_25
*146 FILLER_8_3
*147 FILLER_8_44
*148 FILLER_8_56
*149 FILLER_8_63
*150 FILLER_8_69
*151 FILLER_8_77
*152 FILLER_9_19
*153 FILLER_9_23
*154 FILLER_9_32
*155 FILLER_9_44
*156 FILLER_9_48
*157 FILLER_9_7
*158 FILLER_9_70
*159 FILLER_9_78
*160 PHY_EDGE_ROW_0_Left_10
*161 PHY_EDGE_ROW_0_Right_0
*162 PHY_EDGE_ROW_1_Left_11
*163 PHY_EDGE_ROW_1_Right_1
*164 PHY_EDGE_ROW_2_Left_12
*165 PHY_EDGE_ROW_2_Right_2
*166 PHY_EDGE_ROW_3_Left_13
*167 PHY_EDGE_ROW_3_Right_3
*168 PHY_EDGE_ROW_4_Left_14
*169 PHY_EDGE_ROW_4_Right_4
*170 PHY_EDGE_ROW_5_Left_15
*171 PHY_EDGE_ROW_5_Right_5
*172 PHY_EDGE_ROW_6_Left_16
*173 PHY_EDGE_ROW_6_Right_6
*174 PHY_EDGE_ROW_7_Left_17
*175 PHY_EDGE_ROW_7_Right_7
*176 PHY_EDGE_ROW_8_Left_18
*177 PHY_EDGE_ROW_8_Right_8
*178 PHY_EDGE_ROW_9_Left_19
*179 PHY_EDGE_ROW_9_Right_9
*180 TAP_TAPCELL_ROW_0_20
*181 TAP_TAPCELL_ROW_0_21
*182 TAP_TAPCELL_ROW_1_22
*183 TAP_TAPCELL_ROW_2_23
*184 TAP_TAPCELL_ROW_3_24
*185 TAP_TAPCELL_ROW_4_25
*186 TAP_TAPCELL_ROW_5_26
*187 TAP_TAPCELL_ROW_6_27
*188 TAP_TAPCELL_ROW_7_28
*189 TAP_TAPCELL_ROW_8_29
*190 TAP_TAPCELL_ROW_9_30
*191 TAP_TAPCELL_ROW_9_31
*192 _048_
*193 _049_
*194 _050_
*195 _051_
*196 _052_
*197 _053_
*198 _054_
*199 _055_
*200 _056_
*201 _057_
*202 _058_
*203 _059_
*204 _060_
*205 _061_
*206 _062_
*207 _063_
*208 _064_
*209 _065_
*210 _066_
*211 _067_
*212 _068_
*213 _069_
*214 _070_
*215 _071_
*216 _072_
*217 _073_
*218 _074_
*219 _075_
*220 _076_
*221 _077_
*222 _078_
*223 _079_
*224 _080_
*225 _081_
*226 _082_
*227 _083_
*228 _084_
*229 _085_
*230 _086_
*231 _087_
*232 _088_
*233 _089_
*234 _090_
*235 _091_
*236 _092_
*237 _093_
*238 _094_
*239 _095_
*240 _096_
*241 _097_
*242 _098_
*243 _099_
*244 _100_
*245 _101_
*246 _102_
*247 _103_
*248 input1
*249 input2
*250 input3
*251 input4
*252 input5
*253 input6
*254 input7
*255 input8
*256 max_cap17
*257 output10
*258 output11
*259 output12
*260 output13
*261 output14
*262 output15
*263 output16
*264 output9

*PORTS
A[0] I
A[1] I
A[2] I
A[3] I
B[0] I
B[1] I
B[2] I
B[3] I
P[0] O
P[1] O
P[2] O
P[3] O
P[4] O
P[5] O
P[6] O
P[7] O

*D_NET *1 0.000904685
*CONN
*P A[0] I
*I *248:A I *D sky130_fd_sc_hd__clkbuf_1
*CAP
1 A[0] 0.000452343
2 *248:A 0.000452343
3 *248:A P[0] 0
4 *248:A P[3] 0
5 *248:A *70:10 0
*RES
1 A[0] *248:A 47.3214 
*END

*D_NET *2 0.00188923
*CONN
*P A[1] I
*I *249:A I *D sky130_fd_sc_hd__buf_1
*CAP
1 A[1] 0.000566879
2 *249:A 0
3 *2:9 0.000566879
4 *2:9 P[1] 0
5 *2:9 *198:B1 0.000269856
6 *2:9 *257:A 0.000238947
7 *2:9 *6:13 0
8 *2:9 *10:10 0
9 *2:9 *21:10 1.05441e-05
10 *2:9 *45:14 0.000182826
11 *2:9 *68:12 5.3304e-05
*RES
1 A[1] *2:9 28.92 
2 *2:9 *249:A 23 
*END

*D_NET *3 0.000456416
*CONN
*P A[2] I
*I *250:A I *D sky130_fd_sc_hd__dlymetal6s2s_1
*CAP
1 A[2] 0.000151821
2 *250:A 0.000151821
3 *250:A P[2] 7.21596e-05
4 *250:A *251:A 8.06147e-05
5 *250:A *77:84 0
*RES
1 A[2] *250:A 47.0789 
*END

*D_NET *4 0.000685782
*CONN
*P A[3] I
*I *251:A I *D sky130_fd_sc_hd__dlymetal6s2s_1
*CAP
1 A[3] 0.000263462
2 *251:A 0.000263462
3 *251:A *254:A 7.82427e-05
4 *251:A *77:84 0
5 *250:A *251:A 8.06147e-05
*RES
1 A[3] *251:A 49.1918 
*END

*D_NET *5 0.0012442
*CONN
*P B[0] I
*I *252:A I *D sky130_fd_sc_hd__buf_1
*CAP
1 B[0] 0.000540714
2 *252:A 0.000540714
3 *252:A *6:13 5.50106e-05
4 *252:A *24:10 0.00010776
*RES
1 B[0] *252:A 49.7036 
*END

*D_NET *6 0.00140915
*CONN
*P B[1] I
*I *253:A I *D sky130_fd_sc_hd__clkbuf_2
*CAP
1 B[1] 0.000660976
2 *253:A 0
3 *6:13 0.000660976
4 *6:13 *199:B 1.02949e-05
5 *6:13 *23:6 1.04196e-05
6 *6:13 *24:10 1.14762e-05
7 *252:A *6:13 5.50106e-05
8 *2:9 *6:13 0
*RES
1 B[1] *6:13 27.5943 
2 *6:13 *253:A 23 
*END

*D_NET *7 0.000666048
*CONN
*P B[2] I
*I *254:A I *D sky130_fd_sc_hd__buf_1
*CAP
1 B[2] 0.000254781
2 *254:A 0.000254781
3 *254:A *255:A 7.82427e-05
4 *254:A *77:84 0
5 *251:A *254:A 7.82427e-05
*RES
1 B[2] *254:A 48.8397 
*END

*D_NET *8 0.000559857
*CONN
*P B[3] I
*I *255:A I *D sky130_fd_sc_hd__clkbuf_2
*CAP
1 B[3] 0.000240807
2 *255:A 0.000240807
3 *255:A *233:B 0
4 *254:A *255:A 7.82427e-05
*RES
1 B[3] *255:A 47.5169 
*END

*D_NET *9 0.000929283
*CONN
*P P[0] O
*I *264:X O *D sky130_fd_sc_hd__buf_2
*CAP
1 P[0] 0.000464641
2 *264:X 0.000464641
3 P[0] P[1] 0
4 P[0] *10:10 0
5 *248:A P[0] 0
*RES
1 *264:X P[0] 47.0936 
*END

*D_NET *10 0.00186408
*CONN
*P P[1] O
*I *257:X O *D sky130_fd_sc_hd__buf_2
*CAP
1 P[1] 0.000120558
2 *257:X 0.000556203
3 *10:10 0.00067676
4 *10:10 *198:A1 6.07306e-05
5 *10:10 *198:A3 0.000180224
6 *10:10 *198:B1 1.40958e-05
7 *10:10 *19:12 6.28499e-05
8 *10:10 *23:6 0.000139352
9 *10:10 *80:58 5.3304e-05
10 P[0] P[1] 0
11 P[0] *10:10 0
12 *2:9 P[1] 0
13 *2:9 *10:10 0
*RES
1 *257:X *10:10 49.7968 
2 *10:10 P[1] 2.80679 
*END

*D_NET *11 0.000526015
*CONN
*P P[2] O
*I *258:X O *D sky130_fd_sc_hd__buf_2
*CAP
1 P[2] 0.000226928
2 *258:X 0.000226928
3 P[2] *24:10 0
4 *250:A P[2] 7.21596e-05
*RES
1 *258:X P[2] 47.1648 
*END

*D_NET *12 0.00100658
*CONN
*P P[3] O
*I *259:X O *D sky130_fd_sc_hd__buf_2
*CAP
1 P[3] 0.000503292
2 *259:X 0.000503292
3 *248:A P[3] 0
*RES
1 *259:X P[3] 47.57 
*END

*D_NET *13 0.000687973
*CONN
*P P[4] O
*I *260:X O *D sky130_fd_sc_hd__buf_2
*CAP
1 P[4] 0.000313155
2 *260:X 0.000313155
3 P[4] *71:10 6.16635e-05
*RES
1 *260:X P[4] 48.5734 
*END

*D_NET *14 0.000960449
*CONN
*P P[5] O
*I *261:X O *D sky130_fd_sc_hd__buf_2
*CAP
1 P[5] 0.000480224
2 *261:X 0.000480224
*RES
1 *261:X P[5] 48.5021 
*END

*D_NET *15 0.00157258
*CONN
*P P[6] O
*I *262:X O *D sky130_fd_sc_hd__buf_2
*CAP
1 P[6] 0.000691308
2 *262:X 0
3 *15:6 0.000691308
4 P[6] P[7] 0
5 P[6] *243:B 9.35752e-05
6 P[6] *63:10 0
7 P[6] *66:8 0
8 P[6] *73:10 9.63918e-05
*RES
1 *262:X *15:6 38 
2 *15:6 P[6] 15.5564 
*END

*D_NET *16 0.00170927
*CONN
*P P[7] O
*I *263:X O *D sky130_fd_sc_hd__buf_2
*CAP
1 P[7] 0.000601035
2 *263:X 0
3 *16:6 0.000601035
4 P[7] *56:10 9.26005e-05
5 P[7] *62:10 0.000110024
6 P[7] *66:8 0.00030458
7 P[6] P[7] 0
*RES
1 *263:X *16:6 38 
2 *16:6 P[7] 15.08 
*END

*D_NET *19 0.00192826
*CONN
*I *197:C I *D sky130_fd_sc_hd__and4_1
*I *198:A3 I *D sky130_fd_sc_hd__a31o_1
*I *193:A I *D sky130_fd_sc_hd__inv_2
*I *192:Y O *D sky130_fd_sc_hd__nand2_1
*CAP
1 *197:C 0.000170136
2 *198:A3 0.000110182
3 *193:A 0
4 *192:Y 4.36424e-05
5 *19:12 0.000364025
6 *19:6 0.000467621
7 *197:C *68:12 0.000211255
8 *198:A3 *198:B1 8.72758e-05
9 *198:A3 *80:58 2.02872e-05
10 *19:6 *68:12 5.56279e-05
11 *19:12 *192:A 2.26406e-05
12 *19:12 *198:A1 1.12919e-05
13 *19:12 *76:27 5.64492e-05
14 *19:12 *80:37 1.77711e-05
15 *19:12 *80:39 4.69793e-05
16 *19:12 *80:58 0
17 *10:10 *198:A3 0.000180224
18 *10:10 *19:12 6.28499e-05
*RES
1 *192:Y *19:6 23.6214 
2 *19:6 *19:12 34.0186 
3 *19:12 *193:A 23 
4 *19:12 *198:A3 26.0243 
5 *19:6 *197:C 25.5271 
*END

*D_NET *20 0.00158086
*CONN
*I *216:B1_N I *D sky130_fd_sc_hd__o21bai_1
*I *213:C_N I *D sky130_fd_sc_hd__or3b_1
*I *195:A_N I *D sky130_fd_sc_hd__and3b_1
*I *194:X O *D sky130_fd_sc_hd__and4_1
*CAP
1 *216:B1_N 1.6048e-05
2 *213:C_N 2.26811e-05
3 *195:A_N 8.25083e-05
4 *194:X 1.98764e-05
5 *20:21 0.000386681
6 *20:6 0.000450337
7 *195:A_N *195:C 5.50049e-05
8 *195:A_N *45:14 0.000131263
9 *213:C_N *213:A 1.0688e-05
10 *213:C_N *213:B 0
11 *216:B1_N *213:A 2.93431e-05
12 *216:B1_N *213:B 4.3198e-05
13 *20:6 *195:C 0.000100069
14 *20:6 *45:14 4.93812e-05
15 *20:21 *213:A 3.27248e-05
16 *20:21 *213:B 5.3304e-05
17 *20:21 *39:22 9.77493e-05
*RES
1 *194:X *20:6 24.0979 
2 *20:6 *195:A_N 25.5271 
3 *20:6 *20:21 36.0486 
4 *20:21 *213:C_N 23.4971 
5 *20:21 *216:B1_N 23.6214 
*END

*D_NET *21 0.00391358
*CONN
*I *207:A I *D sky130_fd_sc_hd__or4_2
*I *208:A1 I *D sky130_fd_sc_hd__o22ai_1
*I *197:D I *D sky130_fd_sc_hd__and4_1
*I *198:B1 I *D sky130_fd_sc_hd__a31o_1
*I *196:X O *D sky130_fd_sc_hd__and2_1
*CAP
1 *207:A 0.000253308
2 *208:A1 1.50079e-05
3 *197:D 0
4 *198:B1 0.00024937
5 *196:X 0.000123213
6 *21:32 0.000639213
7 *21:10 0.000527622
8 *21:8 0.000772361
9 *198:B1 *198:A2 7.81176e-05
10 *198:B1 *76:21 3.98286e-05
11 *207:A *207:C 0.000222253
12 *207:A *32:12 9.87385e-06
13 *207:A *82:45 0
14 *208:A1 *207:C 5.50049e-05
15 *208:A1 *207:D 5.50049e-05
16 *21:8 *39:10 0.000185434
17 *21:10 *214:A1 0
18 *21:10 *257:A 9.23705e-06
19 *21:10 *35:40 1.01436e-05
20 *21:10 *38:10 0
21 *21:10 *80:37 0
22 *21:10 *80:90 0
23 *21:32 *35:40 0.000286812
24 *21:32 *80:90 0
25 *21:32 *81:16 0
26 *21:32 *82:45 0
27 *198:A3 *198:B1 8.72758e-05
28 *2:9 *198:B1 0.000269856
29 *2:9 *21:10 1.05441e-05
30 *10:10 *198:B1 1.40958e-05
*RES
1 *196:X *21:8 40.0507 
2 *21:8 *21:10 4.72286 
3 *21:10 *198:B1 44.2143 
4 *21:10 *197:D 38 
5 *21:8 *21:32 6.83571 
6 *21:32 *208:A1 38.6214 
7 *21:32 *207:A 42.2257 
*END

*D_NET *22 0.00125152
*CONN
*I *221:B1 I *D sky130_fd_sc_hd__a31o_1
*I *199:A_N I *D sky130_fd_sc_hd__and2b_1
*I *197:X O *D sky130_fd_sc_hd__and4_1
*CAP
1 *221:B1 0.000107253
2 *199:A_N 0
3 *197:X 0.000141729
4 *22:12 0.000124571
5 *22:6 0.000373553
6 *221:B1 *201:B 7.44257e-05
7 *22:6 *201:B 6.17437e-06
8 *22:6 *45:14 0.000228909
9 *22:6 *76:8 5.50106e-05
10 *22:6 *79:27 2.80394e-05
11 *22:12 *257:A 0
12 *22:12 *23:12 0.000111852
13 *22:12 *80:8 0
*RES
1 *197:X *22:6 26.48 
2 *22:6 *22:12 32.2579 
3 *22:12 *199:A_N 23 
4 *22:6 *221:B1 25.0714 
*END

*D_NET *23 0.0013578
*CONN
*I *199:B I *D sky130_fd_sc_hd__and2b_1
*I *221:A2 I *D sky130_fd_sc_hd__a31o_1
*I *198:X O *D sky130_fd_sc_hd__a31o_1
*CAP
1 *199:B 0.000100599
2 *221:A2 0
3 *198:X 0.000332135
4 *23:12 0.000104485
5 *23:6 0.000537219
6 *23:12 *79:72 1.14452e-05
7 *23:12 *80:8 0
8 *6:13 *199:B 1.02949e-05
9 *6:13 *23:6 1.04196e-05
10 *10:10 *23:6 0.000139352
11 *22:12 *23:12 0.000111852
*RES
1 *198:X *23:6 27.4329 
2 *23:6 *23:12 31.9057 
3 *23:12 *221:A2 23 
4 *23:6 *199:B 24.595 
*END

*D_NET *24 0.000883917
*CONN
*I *202:A I *D sky130_fd_sc_hd__xnor2_1
*I *199:X O *D sky130_fd_sc_hd__and2b_1
*CAP
1 *202:A 0
2 *199:X 0.000342766
3 *24:10 0.000342766
4 *24:10 *79:8 7.91493e-05
5 P[2] *24:10 0
6 *252:A *24:10 0.00010776
7 *6:13 *24:10 1.14762e-05
*RES
1 *199:X *24:10 43.7379 
2 *24:10 *202:A 38 
*END

*D_NET *25 0.0010523
*CONN
*I *201:B I *D sky130_fd_sc_hd__nand2_1
*I *221:A3 I *D sky130_fd_sc_hd__a31o_1
*I *200:X O *D sky130_fd_sc_hd__a21bo_1
*CAP
1 *201:B 0.000108166
2 *221:A3 0
3 *200:X 0.000155964
4 *25:12 0.000108166
5 *25:10 0.000155964
6 *201:B *79:23 0.000216471
7 *201:B *79:27 9.67842e-05
8 *25:10 *214:A1 5.10756e-05
9 *25:10 *214:B1 5.50106e-05
10 *25:10 *79:33 8.21456e-06
11 *25:10 *79:72 1.58805e-05
12 *25:10 *79:83 0
13 *221:B1 *201:B 7.44257e-05
14 *22:6 *201:B 6.17437e-06
*RES
1 *200:X *25:10 40.5271 
2 *25:10 *25:12 15 
3 *25:12 *221:A3 23 
4 *25:12 *201:B 26.48 
*END

*D_NET *26 0.000258688
*CONN
*I *202:B I *D sky130_fd_sc_hd__xnor2_1
*I *201:Y O *D sky130_fd_sc_hd__nand2_1
*CAP
1 *202:B 9.1092e-05
2 *201:Y 9.1092e-05
3 *202:B *79:12 5.3304e-05
4 *202:B *79:21 1.56665e-05
5 *202:B *79:23 7.53384e-06
*RES
1 *201:Y *202:B 47.5743 
*END

*D_NET *27 0.00358874
*CONN
*I *241:C I *D sky130_fd_sc_hd__and3_1
*I *245:A1 I *D sky130_fd_sc_hd__a21oi_1
*I *209:A_N I *D sky130_fd_sc_hd__nand3b_1
*I *210:B1_N I *D sky130_fd_sc_hd__a21bo_1
*I *203:Y O *D sky130_fd_sc_hd__nand2_1
*CAP
1 *241:C 0.000181401
2 *245:A1 0.000203032
3 *209:A_N 2.45198e-05
4 *210:B1_N 1.47587e-05
5 *203:Y 0
6 *27:36 0.000551617
7 *27:16 0.00052819
8 *27:4 0.000656095
9 *209:A_N *31:19 4.74892e-06
10 *210:B1_N *210:A1 2.47321e-05
11 *210:B1_N *210:A2 5.79559e-05
12 *210:B1_N *33:8 0.000101762
13 *241:C *82:25 0.000107741
14 *241:C *82:31 0.000159331
15 *245:A1 *245:A2 7.29962e-05
16 *245:A1 *245:B1 9.67842e-05
17 *245:A1 *56:16 7.53384e-06
18 *245:A1 *82:31 6.17437e-06
19 *245:A1 *82:39 2.02872e-05
20 *27:16 *210:A1 4.9662e-05
21 *27:16 *229:A 4.96717e-05
22 *27:16 *31:19 1.12349e-05
23 *27:16 *31:32 6.97485e-05
24 *27:16 *33:6 3.4903e-05
25 *27:16 *33:8 0.000123506
26 *27:16 *82:45 0.000287571
27 *27:36 *228:B 0
28 *27:36 *243:B 0
29 *27:36 *51:10 8.4047e-05
30 *27:36 *66:8 6.7177e-06
31 *27:36 *78:69 0
32 *27:36 *82:39 5.20202e-05
*RES
1 *203:Y *27:4 23 
2 *27:4 *27:16 11.3307 
3 *27:16 *210:B1_N 24.0979 
4 *27:16 *209:A_N 23.4971 
5 *27:4 *27:36 32.9621 
6 *27:36 *245:A1 26.5214 
7 *27:36 *241:C 26.0864 
*END

*D_NET *28 0.00104115
*CONN
*I *208:A2 I *D sky130_fd_sc_hd__o22ai_1
*I *207:B I *D sky130_fd_sc_hd__or4_2
*I *204:Y O *D sky130_fd_sc_hd__nand2_1
*CAP
1 *208:A2 0.000168898
2 *207:B 0
3 *204:Y 0.000174169
4 *28:12 0.000168898
5 *28:10 0.000174169
6 *208:A2 *32:12 0.0002246
7 *28:10 *204:A 1.08287e-05
8 *28:10 *204:B 3.66555e-05
9 *28:10 *82:45 8.29264e-05
*RES
1 *204:Y *28:10 40.7757 
2 *28:10 *28:12 15 
3 *28:12 *207:B 23 
4 *28:12 *208:A2 25.5271 
*END

*D_NET *29 0.00316201
*CONN
*I *242:A1 I *D sky130_fd_sc_hd__a21oi_1
*I *208:B1 I *D sky130_fd_sc_hd__o22ai_1
*I *207:C I *D sky130_fd_sc_hd__or4_2
*I *231:A I *D sky130_fd_sc_hd__xnor2_1
*I *215:A I *D sky130_fd_sc_hd__nor2_1
*I *205:X O *D sky130_fd_sc_hd__and4_1
*CAP
1 *242:A1 0
2 *208:B1 0
3 *207:C 0.000126155
4 *231:A 0
5 *215:A 6.63266e-05
6 *205:X 0
7 *29:34 0.00029407
8 *29:32 0.000377588
9 *29:19 0.000418831
10 *29:4 0.000275484
11 *207:C *207:D 5.38709e-05
12 *207:C *30:12 5.70419e-05
13 *207:C *32:12 3.17634e-05
14 *215:A *205:C 1.64402e-05
15 *215:A *206:B 5.50049e-05
16 *29:19 *205:C 4.56338e-05
17 *29:19 *77:45 0.000138727
18 *29:19 *77:84 0
19 *29:32 *52:19 2.89256e-05
20 *29:32 *54:10 0
21 *29:32 *55:6 9.41704e-05
22 *29:32 *77:45 0.000263098
23 *29:32 *77:84 0
24 *29:32 *81:6 0.000177604
25 *29:34 *30:12 9.16362e-05
26 *29:34 *81:6 4.34745e-05
27 *29:34 *81:10 0.000228909
28 *207:A *207:C 0.000222253
29 *208:A1 *207:C 5.50049e-05
*RES
1 *205:X *29:4 23 
2 *29:4 *215:A 24.4707 
3 *29:4 *29:19 18.48 
4 *29:19 *231:A 38 
5 *29:19 *29:32 20.7171 
6 *29:32 *29:34 4.43286 
7 *29:34 *207:C 26.9771 
8 *29:34 *208:B1 23 
9 *29:32 *242:A1 23 
*END

*D_NET *30 0.00149365
*CONN
*I *208:B2 I *D sky130_fd_sc_hd__o22ai_1
*I *207:D I *D sky130_fd_sc_hd__or4_2
*I *206:Y O *D sky130_fd_sc_hd__nand2_1
*CAP
1 *208:B2 0
2 *207:D 5.44011e-05
3 *206:Y 0.000185176
4 *30:12 0.000184957
5 *30:8 0.000315732
6 *207:D *32:12 0.000141052
7 *30:8 *35:46 0
8 *30:8 *78:12 0
9 *30:8 *78:58 0
10 *30:8 *81:16 0.000354778
11 *207:C *207:D 5.38709e-05
12 *207:C *30:12 5.70419e-05
13 *208:A1 *207:D 5.50049e-05
14 *29:34 *30:12 9.16362e-05
*RES
1 *206:Y *30:8 42.7229 
2 *30:8 *30:12 18.0036 
3 *30:12 *207:D 25.0714 
4 *30:12 *208:B2 23 
*END

*D_NET *31 0.00268939
*CONN
*I *234:A I *D sky130_fd_sc_hd__nand3_1
*I *235:A1 I *D sky130_fd_sc_hd__a21oi_1
*I *210:A1 I *D sky130_fd_sc_hd__a21bo_1
*I *209:B I *D sky130_fd_sc_hd__nand3b_1
*I *207:X O *D sky130_fd_sc_hd__or4_2
*CAP
1 *234:A 0.000241996
2 *235:A1 0
3 *210:A1 0.000159629
4 *209:B 0
5 *207:X 0.000198584
6 *31:32 0.00042645
7 *31:19 0.00036486
8 *31:12 2.07768e-05
9 *31:10 0.000198584
10 *210:A1 *210:A2 0.000233359
11 *234:A *234:B 7.38977e-05
12 *234:A *234:C 0.000100061
13 *234:A *236:A 3.59477e-05
14 *234:A *56:16 0
15 *234:A *58:23 1.34354e-05
16 *31:10 *209:C 2.47015e-05
17 *31:10 *32:12 0.000159672
18 *31:10 *33:28 6.07397e-05
19 *31:32 *33:28 0.000216567
20 *209:A_N *31:19 4.74892e-06
21 *210:B1_N *210:A1 2.47321e-05
22 *27:16 *210:A1 4.9662e-05
23 *27:16 *31:19 1.12349e-05
24 *27:16 *31:32 6.97485e-05
*RES
1 *207:X *31:10 41.48 
2 *31:10 *31:12 15 
3 *31:12 *209:B 23 
4 *31:12 *31:19 0.497143 
5 *31:19 *210:A1 26.9564 
6 *31:19 *31:32 19.06 
7 *31:32 *235:A1 38 
8 *31:32 *234:A 42.5157 
*END

*D_NET *32 0.00226452
*CONN
*I *209:C I *D sky130_fd_sc_hd__nand3b_1
*I *210:A2 I *D sky130_fd_sc_hd__a21bo_1
*I *208:Y O *D sky130_fd_sc_hd__o22ai_1
*CAP
1 *209:C 6.57065e-06
2 *210:A2 0.000196663
3 *208:Y 0.000425788
4 *32:12 0.000629022
5 *210:A2 *33:8 0.000123494
6 *32:12 *82:45 0
7 *207:A *32:12 9.87385e-06
8 *207:C *32:12 3.17634e-05
9 *207:D *32:12 0.000141052
10 *208:A2 *32:12 0.0002246
11 *210:A1 *210:A2 0.000233359
12 *210:B1_N *210:A2 5.79559e-05
13 *31:10 *209:C 2.47015e-05
14 *31:10 *32:12 0.000159672
*RES
1 *208:Y *32:12 47.4975 
2 *32:12 *210:A2 42.4225 
3 *32:12 *209:C 38.3211 
*END

*D_NET *33 0.00331226
*CONN
*I *235:A2 I *D sky130_fd_sc_hd__a21oi_1
*I *234:B I *D sky130_fd_sc_hd__nand3_1
*I *219:A I *D sky130_fd_sc_hd__and3_1
*I *220:A1 I *D sky130_fd_sc_hd__a21oi_1
*I *209:Y O *D sky130_fd_sc_hd__nand3b_1
*CAP
1 *235:A2 0
2 *234:B 5.02766e-05
3 *219:A 2.34823e-05
4 *220:A1 0.000194046
5 *209:Y 3.99606e-05
6 *33:28 0.000258873
7 *33:8 0.000769701
8 *33:6 0.00080073
9 *220:A1 *219:C 7.09259e-05
10 *220:A1 *220:A2 8.6101e-06
11 *220:A1 *220:B1 9.84794e-05
12 *220:A1 *34:6 1.02949e-05
13 *234:B *234:C 5.51411e-05
14 *234:B *236:A 5.50049e-05
15 *234:B *58:8 9.86773e-05
16 *33:8 *34:6 2.73039e-05
17 *33:28 *58:23 1.58805e-05
18 *33:28 *82:45 0
19 *210:A2 *33:8 0.000123494
20 *210:B1_N *33:8 0.000101762
21 *234:A *234:B 7.38977e-05
22 *27:16 *33:6 3.4903e-05
23 *27:16 *33:8 0.000123506
24 *31:10 *33:28 6.07397e-05
25 *31:32 *33:28 0.000216567
*RES
1 *209:Y *33:6 23.6214 
2 *33:6 *33:8 8.24429 
3 *33:8 *220:A1 26.0036 
4 *33:8 *219:A 23.4971 
5 *33:6 *33:28 34.0186 
6 *33:28 *234:B 25.03 
7 *33:28 *235:A2 23 
*END

*D_NET *34 0.000898685
*CONN
*I *219:B I *D sky130_fd_sc_hd__and3_1
*I *220:A2 I *D sky130_fd_sc_hd__a21oi_1
*I *210:X O *D sky130_fd_sc_hd__a21bo_1
*CAP
1 *219:B 0
2 *220:A2 0.000102873
3 *210:X 0.000242667
4 *34:6 0.000345539
5 *220:A2 *219:C 8.33635e-05
6 *220:A2 *220:B1 5.50049e-05
7 *220:A2 *226:A1 2.30292e-05
8 *220:A1 *220:A2 8.6101e-06
9 *220:A1 *34:6 1.02949e-05
10 *33:8 *34:6 2.73039e-05
*RES
1 *210:X *34:6 26.48 
2 *34:6 *220:A2 25.7757 
3 *34:6 *219:B 23 
*END

*D_NET *35 0.00424697
*CONN
*I *231:B I *D sky130_fd_sc_hd__xnor2_1
*I *242:A2 I *D sky130_fd_sc_hd__a21oi_1
*I *216:A1 I *D sky130_fd_sc_hd__o21bai_1
*I *213:A I *D sky130_fd_sc_hd__or3b_1
*I *211:X O *D sky130_fd_sc_hd__and4_1
*CAP
1 *231:B 0.000116567
2 *242:A2 0
3 *216:A1 0
4 *213:A 0.00018246
5 *211:X 0
6 *35:46 0.000122566
7 *35:40 0.000760939
8 *35:12 0.000567026
9 *35:4 0.000906372
10 *213:A *213:B 5.89562e-05
11 *213:A *36:10 7.68515e-05
12 *213:A *39:10 6.57815e-06
13 *213:A *39:22 2.93747e-05
14 *213:A *40:10 0.000232721
15 *213:A *67:57 5.92108e-05
16 *213:A *67:76 1.4345e-05
17 *231:B *78:10 5.12254e-05
18 *35:12 *36:10 5.58975e-06
19 *35:12 *39:10 0.000446768
20 *35:12 *67:57 5.94125e-05
21 *35:40 *82:45 1.19796e-05
22 *35:40 *82:49 5.3656e-05
23 *35:46 *78:58 0.000114656
24 *35:46 *81:16 0
25 *213:C_N *213:A 1.0688e-05
26 *216:B1_N *213:A 2.93431e-05
27 *20:21 *213:A 3.27248e-05
28 *21:10 *35:40 1.01436e-05
29 *21:32 *35:40 0.000286812
30 *30:8 *35:46 0
*RES
1 *211:X *35:4 23 
2 *35:4 *35:12 36.1107 
3 *35:12 *213:A 28.7171 
4 *35:12 *216:A1 23 
5 *35:4 *35:40 39.8807 
6 *35:40 *35:46 32.9621 
7 *35:46 *242:A2 23 
8 *35:40 *231:B 25.0507 
*END

*D_NET *36 0.00106851
*CONN
*I *216:A2 I *D sky130_fd_sc_hd__o21bai_1
*I *213:B I *D sky130_fd_sc_hd__or3b_1
*I *212:Y O *D sky130_fd_sc_hd__nand2_1
*CAP
1 *216:A2 0
2 *213:B 0.000127356
3 *212:Y 0.000173177
4 *36:12 0.000127356
5 *36:10 0.000173177
6 *213:B *39:10 0.000198369
7 *213:B *67:57 7.86509e-06
8 *36:10 *67:57 9.78729e-06
9 *36:10 *67:76 1.3523e-05
10 *213:A *213:B 5.89562e-05
11 *213:A *36:10 7.68515e-05
12 *213:C_N *213:B 0
13 *216:B1_N *213:B 4.3198e-05
14 *20:21 *213:B 5.3304e-05
15 *35:12 *36:10 5.58975e-06
*RES
1 *212:Y *36:10 40.4236 
2 *36:10 *36:12 15 
3 *36:12 *213:B 26.8736 
4 *36:12 *216:A2 23 
*END

*D_NET *37 0.00123185
*CONN
*I *218:B1_N I *D sky130_fd_sc_hd__a21bo_1
*I *217:A I *D sky130_fd_sc_hd__and3_1
*I *222:A1 I *D sky130_fd_sc_hd__a21o_1
*I *213:X O *D sky130_fd_sc_hd__or3b_1
*CAP
1 *218:B1_N 0
2 *217:A 2.14194e-05
3 *222:A1 0.000204651
4 *213:X 3.88336e-05
5 *37:28 8.12487e-05
6 *37:8 0.000355604
7 *37:6 0.000249616
8 *217:A *217:C 5.90675e-06
9 *217:A *40:10 0
10 *222:A1 *217:C 2.07921e-05
11 *222:A1 *222:A2 6.99571e-05
12 *222:A1 *222:B1 1.32939e-05
13 *222:A1 *40:10 2.64616e-05
14 *222:A1 *40:12 2.18409e-05
15 *37:6 *40:10 2.4754e-05
16 *37:8 *40:10 9.74722e-05
17 *37:28 *39:46 0
*RES
1 *213:X *37:6 23.6214 
2 *37:6 *37:8 2.05071 
3 *37:8 *222:A1 26.0036 
4 *37:8 *217:A 23.4971 
5 *37:6 *37:28 31.2014 
6 *37:28 *218:B1_N 23 
*END

*D_NET *38 0.000661038
*CONN
*I *215:B I *D sky130_fd_sc_hd__nor2_1
*I *214:Y O *D sky130_fd_sc_hd__a22oi_1
*CAP
1 *215:B 0
2 *214:Y 0.000182135
3 *38:10 0.000182135
4 *38:10 *214:A2 8.31686e-05
5 *38:10 *214:B1 2.37941e-05
6 *38:10 *78:12 9.21347e-06
7 *38:10 *78:18 4.90891e-05
8 *38:10 *80:27 7.1349e-05
9 *38:10 *80:31 7.53384e-06
10 *38:10 *80:90 5.26204e-05
11 *21:10 *38:10 0
*RES
1 *214:Y *38:10 42.5364 
2 *38:10 *215:B 38 
*END

*D_NET *39 0.00489435
*CONN
*I *218:A1 I *D sky130_fd_sc_hd__a21bo_1
*I *217:B I *D sky130_fd_sc_hd__and3_1
*I *222:B1 I *D sky130_fd_sc_hd__a21o_1
*I *215:Y O *D sky130_fd_sc_hd__nor2_1
*CAP
1 *218:A1 0
2 *217:B 2.00578e-05
3 *222:B1 0.000158308
4 *215:Y 0.000541795
5 *39:46 0.000165425
6 *39:24 0.000225181
7 *39:22 0.000617181
8 *39:10 0.000946736
9 *222:B1 *217:C 0
10 *222:B1 *222:A2 8.1796e-05
11 *222:B1 *41:10 9.84851e-05
12 *39:10 *196:A 0.000312223
13 *39:10 *206:B 5.50049e-05
14 *39:10 *211:D 2.80512e-05
15 *39:10 *212:B 1.59071e-05
16 *39:10 *67:57 9.65021e-05
17 *39:10 *67:76 2.34401e-05
18 *39:10 *81:16 0.00010655
19 *39:22 *40:10 0.000175697
20 *39:24 *222:A2 7.53384e-06
21 *39:24 *40:10 2.18409e-05
22 *39:24 *40:12 2.4754e-05
23 *39:46 *40:34 0.000194318
24 *213:A *39:10 6.57815e-06
25 *213:A *39:22 2.93747e-05
26 *213:B *39:10 0.000198369
27 *222:A1 *222:B1 1.32939e-05
28 *20:21 *39:22 9.77493e-05
29 *21:8 *39:10 0.000185434
30 *35:12 *39:10 0.000446768
31 *37:28 *39:46 0
*RES
1 *215:Y *39:10 36.6507 
2 *39:10 *39:22 37.9336 
3 *39:22 *39:24 1.09786 
4 *39:24 *222:B1 26.8529 
5 *39:24 *217:B 23.4971 
6 *39:22 *39:46 33.3143 
7 *39:46 *218:A1 23 
*END

*D_NET *40 0.00213518
*CONN
*I *218:A2 I *D sky130_fd_sc_hd__a21bo_1
*I *217:C I *D sky130_fd_sc_hd__and3_1
*I *222:A2 I *D sky130_fd_sc_hd__a21o_1
*I *216:Y O *D sky130_fd_sc_hd__o21bai_1
*CAP
1 *218:A2 0
2 *217:C 2.26562e-05
3 *222:A2 2.59341e-05
4 *216:Y 0.000378962
5 *40:34 0.000123115
6 *40:12 6.25937e-05
7 *40:10 0.00051608
8 *213:A *40:10 0.000232721
9 *217:A *217:C 5.90675e-06
10 *217:A *40:10 0
11 *222:A1 *217:C 2.07921e-05
12 *222:A1 *222:A2 6.99571e-05
13 *222:A1 *40:10 2.64616e-05
14 *222:A1 *40:12 2.18409e-05
15 *222:B1 *217:C 0
16 *222:B1 *222:A2 8.1796e-05
17 *37:6 *40:10 2.4754e-05
18 *37:8 *40:10 9.74722e-05
19 *39:22 *40:10 0.000175697
20 *39:24 *222:A2 7.53384e-06
21 *39:24 *40:10 2.18409e-05
22 *39:24 *40:12 2.4754e-05
23 *39:46 *40:34 0.000194318
*RES
1 *216:Y *40:10 31.2857 
2 *40:10 *40:12 0.621429 
3 *40:12 *222:A2 24.5743 
4 *40:12 *217:C 23.725 
5 *40:10 *40:34 32.61 
6 *40:34 *218:A2 23 
*END

*D_NET *41 0.000686469
*CONN
*I *223:A_N I *D sky130_fd_sc_hd__nand2b_1
*I *224:A_N I *D sky130_fd_sc_hd__nand3b_1
*I *217:X O *D sky130_fd_sc_hd__and3_1
*CAP
1 *223:A_N 0
2 *224:A_N 3.84812e-05
3 *217:X 0.00017736
4 *41:12 3.84812e-05
5 *41:10 0.00017736
6 *224:A_N *223:B 0.00010018
7 *41:10 *46:10 5.61207e-05
8 *222:B1 *41:10 9.84851e-05
*RES
1 *217:X *41:10 41.3557 
2 *41:10 *41:12 15 
3 *41:12 *224:A_N 24.0979 
4 *41:12 *223:A_N 23 
*END

*D_NET *42 0.00111399
*CONN
*I *219:C I *D sky130_fd_sc_hd__and3_1
*I *220:B1 I *D sky130_fd_sc_hd__a21oi_1
*I *218:X O *D sky130_fd_sc_hd__a21bo_1
*CAP
1 *219:C 1.56384e-05
2 *220:B1 6.34654e-05
3 *218:X 0.000293723
4 *42:12 7.91038e-05
5 *42:10 0.000293723
6 *220:B1 *226:A1 6.05598e-05
7 *42:10 *48:8 0
8 *220:A1 *219:C 7.09259e-05
9 *220:A1 *220:B1 9.84794e-05
10 *220:A2 *219:C 8.33635e-05
11 *220:A2 *220:B1 5.50049e-05
*RES
1 *218:X *42:10 42.9921 
2 *42:10 *42:12 15 
3 *42:12 *220:B1 25.0507 
4 *42:12 *219:C 23.9321 
*END

*D_NET *43 0.00393464
*CONN
*I *237:B1 I *D sky130_fd_sc_hd__a211oi_1
*I *238:A1 I *D sky130_fd_sc_hd__o211a_1
*I *240:A1 I *D sky130_fd_sc_hd__o31a_1
*I *225:A I *D sky130_fd_sc_hd__nor3_1
*I *226:A1 I *D sky130_fd_sc_hd__o21a_1
*I *219:X O *D sky130_fd_sc_hd__and3_1
*CAP
1 *237:B1 0.000197589
2 *238:A1 0
3 *240:A1 0
4 *225:A 0.000170685
5 *226:A1 0.000165679
6 *219:X 0
7 *43:52 0.000300946
8 *43:38 0.000351386
9 *43:34 0.000570708
10 *43:21 0.000605107
11 *43:4 0.000277423
12 *226:A1 *44:6 3.22879e-05
13 *237:B1 *60:10 0.000185428
14 *43:21 *225:C 0
15 *43:21 *44:14 0
16 *43:34 *59:8 0
17 *43:38 *237:A1 0.000314157
18 *43:38 *237:A2 0.000316483
19 *43:52 *237:A1 0.000100069
20 *43:52 *240:A2 3.51882e-05
21 *43:52 *57:19 0.000207761
22 *43:52 *60:10 1.01436e-05
23 *43:52 *75:21 1.00084e-05
24 *220:A2 *226:A1 2.30292e-05
25 *220:B1 *226:A1 6.05598e-05
*RES
1 *219:X *43:4 23 
2 *43:4 *226:A1 26.5214 
3 *43:4 *43:21 31.9057 
4 *43:21 *225:A 26.0036 
5 *43:21 *43:34 20.4893 
6 *43:34 *43:38 18.48 
7 *43:38 *43:52 36.4214 
8 *43:52 *240:A1 23 
9 *43:38 *238:A1 23 
10 *43:34 *237:B1 41.2521 
*END

*D_NET *44 0.000549413
*CONN
*I *226:A2 I *D sky130_fd_sc_hd__o21a_1
*I *225:B I *D sky130_fd_sc_hd__nor3_1
*I *220:Y O *D sky130_fd_sc_hd__a21oi_1
*CAP
1 *226:A2 0
2 *225:B 0
3 *220:Y 6.88825e-05
4 *44:14 0.000159183
5 *44:6 0.000228066
6 *44:14 *225:C 5.56203e-05
7 *44:14 *226:B1 5.37348e-06
8 *226:A1 *44:6 3.22879e-05
9 *43:21 *44:14 0
*RES
1 *220:Y *44:6 24.0979 
2 *44:6 *44:14 32.6514 
3 *44:14 *225:B 23 
4 *44:6 *226:A2 23 
*END

*D_NET *45 0.00381175
*CONN
*I *247:A I *D sky130_fd_sc_hd__xnor2_1
*I *224:B I *D sky130_fd_sc_hd__nand3b_1
*I *221:X O *D sky130_fd_sc_hd__a31o_1
*CAP
1 *247:A 0
2 *224:B 0
3 *221:X 0.000866545
4 *45:22 0.000241041
5 *45:14 0.00110759
6 *45:14 *192:B 0.000168907
7 *45:14 *195:B 5.50049e-05
8 *45:14 *195:C 4.15934e-05
9 *45:14 *67:25 0.000229348
10 *45:14 *68:12 0.000136375
11 *45:14 *70:10 0.000128391
12 *45:14 *76:8 8.56254e-05
13 *45:14 *76:27 0.000139974
14 *45:14 *79:27 7.53384e-06
15 *45:22 *46:10 1.14452e-05
16 *45:22 *47:10 0
17 *195:A_N *45:14 0.000131263
18 *2:9 *45:14 0.000182826
19 *20:6 *45:14 4.93812e-05
20 *22:6 *45:14 0.000228909
*RES
1 *221:X *45:14 44.7914 
2 *45:14 *45:22 34.1843 
3 *45:22 *224:B 23 
4 *45:14 *247:A 23 
*END

*D_NET *46 0.000792419
*CONN
*I *224:C I *D sky130_fd_sc_hd__nand3b_1
*I *223:B I *D sky130_fd_sc_hd__nand2b_1
*I *222:X O *D sky130_fd_sc_hd__a21o_1
*CAP
1 *224:C 0
2 *223:B 0.000123592
3 *222:X 0.000147155
4 *46:12 0.000123592
5 *46:10 0.000147155
6 *223:B *47:10 5.52797e-05
7 *46:10 *48:8 2.79004e-05
8 *224:A_N *223:B 0.00010018
9 *41:10 *46:10 5.61207e-05
10 *45:22 *46:10 1.14452e-05
*RES
1 *222:X *46:10 40.8793 
2 *46:10 *46:12 15 
3 *46:12 *223:B 26.1952 
4 *46:12 *224:C 23 
*END

*D_NET *47 0.000619052
*CONN
*I *247:B I *D sky130_fd_sc_hd__xnor2_1
*I *223:Y O *D sky130_fd_sc_hd__nand2b_1
*CAP
1 *247:B 0
2 *223:Y 0.000281886
3 *47:10 0.000281886
4 *223:B *47:10 5.52797e-05
5 *45:22 *47:10 0
*RES
1 *223:Y *47:10 42.3086 
2 *47:10 *247:B 38 
*END

*D_NET *48 0.00172669
*CONN
*I *225:C I *D sky130_fd_sc_hd__nor3_1
*I *226:B1 I *D sky130_fd_sc_hd__o21a_1
*I *224:Y O *D sky130_fd_sc_hd__nand3b_1
*CAP
1 *225:C 0.000195893
2 *226:B1 6.42716e-05
3 *224:Y 0.00052937
4 *48:8 0.000789535
5 *225:C *227:A 5.50106e-05
6 *225:C *50:10 0
7 *226:B1 *50:10 3.7122e-06
8 *42:10 *48:8 0
9 *43:21 *225:C 0
10 *44:14 *225:C 5.56203e-05
11 *44:14 *226:B1 5.37348e-06
12 *46:10 *48:8 2.79004e-05
*RES
1 *224:Y *48:8 48.3571 
2 *48:8 *226:B1 39.0979 
3 *48:8 *225:C 41.9357 
*END

*D_NET *49 0.00068744
*CONN
*I *256:A I *D sky130_fd_sc_hd__buf_1
*I *227:A I *D sky130_fd_sc_hd__nor2_1
*I *225:Y O *D sky130_fd_sc_hd__nor3_1
*CAP
1 *256:A 0
2 *227:A 0.000128369
3 *225:Y 0
4 *49:23 0.000187845
5 *49:4 0.000316215
6 *49:23 *71:10 0
7 *225:C *227:A 5.50106e-05
*RES
1 *225:Y *49:4 23 
2 *49:4 *227:A 25.5686 
3 *49:4 *49:23 33.0036 
4 *49:23 *256:A 23 
*END

*D_NET *50 0.000585077
*CONN
*I *227:B I *D sky130_fd_sc_hd__nor2_1
*I *226:X O *D sky130_fd_sc_hd__o21a_1
*CAP
1 *227:B 0
2 *226:X 0.000290682
3 *50:10 0.000290682
4 *225:C *50:10 0
5 *226:B1 *50:10 3.7122e-06