*SPEF "ieee 1481-1999"
*DESIGN "SarsanStepsNada_e8"
*DATE "11:51:38 Friday September 12, 2025"
*VENDOR "The OpenROAD Project"
*PROGRAM "OpenROAD"
*VERSION "edf00dff99f6c40d67a30c0e22a8191c5d2ed9d6"
*DESIGN_FLOW "NAME_SCOPE LOCAL" "PIN_CAP NONE"
*DIVIDER /
*DELIMITER :
*BUS_DELIMITER []
*T_UNIT 1 NS
*C_UNIT 1 PF
*R_UNIT 1 OHM
*L_UNIT 1 HENRY

*NAME_MAP
*1 A[0]
*2 A[1]
*3 B[0]
*4 B[1]
*5 P[0]
*6 P[1]
*7 P[2]
*8 P[3]
*11 _0_
*12 _1_
*13 _2_
*14 net1
*15 net2
*16 net3
*17 net4
*18 net5
*19 net6
*20 net7
*21 net8
*22 FILLER_0_15
*23 FILLER_0_27
*24 FILLER_0_29
*25 FILLER_0_3
*26 FILLER_0_41
*27 FILLER_0_53
*28 FILLER_0_57
*29 FILLER_0_69
*30 FILLER_1_15
*31 FILLER_1_27
*32 FILLER_1_3
*33 FILLER_1_39
*34 FILLER_1_51
*35 FILLER_1_55
*36 FILLER_1_57
*37 FILLER_1_69
*38 FILLER_2_15
*39 FILLER_2_27
*40 FILLER_2_29
*41 FILLER_2_3
*42 FILLER_2_41
*43 FILLER_2_53
*44 FILLER_2_65
*45 FILLER_2_77
*46 FILLER_3_15
*47 FILLER_3_27
*48 FILLER_3_3
*49 FILLER_3_39
*50 FILLER_3_51
*51 FILLER_3_55
*52 FILLER_3_60
*53 FILLER_3_72
*54 FILLER_3_80
*55 FILLER_4_10
*56 FILLER_4_19
*57 FILLER_4_27
*58 FILLER_4_29
*59 FILLER_4_37
*60 FILLER_4_45
*61 FILLER_4_6
*62 FILLER_4_64
*63 FILLER_4_76
*64 FILLER_5_19
*65 FILLER_5_31
*66 FILLER_5_43
*67 FILLER_5_55
*68 FILLER_5_57
*69 FILLER_5_7
*70 FILLER_5_72
*71 FILLER_6_19
*72 FILLER_6_27
*73 FILLER_6_29
*74 FILLER_6_41
*75 FILLER_6_53
*76 FILLER_6_65
*77 FILLER_6_7
*78 FILLER_7_15
*79 FILLER_7_27
*80 FILLER_7_3
*81 FILLER_7_39
*82 FILLER_7_51
*83 FILLER_7_55
*84 FILLER_7_57
*85 FILLER_7_69
*86 FILLER_7_77
*87 FILLER_8_15
*88 FILLER_8_27
*89 FILLER_8_29
*90 FILLER_8_3
*91 FILLER_8_41
*92 FILLER_8_53
*93 FILLER_8_65
*94 FILLER_8_77
*95 FILLER_9_15
*96 FILLER_9_27
*97 FILLER_9_29
*98 FILLER_9_3
*99 FILLER_9_41
*100 FILLER_9_53
*101 FILLER_9_57
*102 FILLER_9_69
*103 PHY_EDGE_ROW_0_Left_10
*104 PHY_EDGE_ROW_0_Right_0
*105 PHY_EDGE_ROW_1_Left_11
*106 PHY_EDGE_ROW_1_Right_1
*107 PHY_EDGE_ROW_2_Left_12
*108 PHY_EDGE_ROW_2_Right_2
*109 PHY_EDGE_ROW_3_Left_13
*110 PHY_EDGE_ROW_3_Right_3
*111 PHY_EDGE_ROW_4_Left_14
*112 PHY_EDGE_ROW_4_Right_4
*113 PHY_EDGE_ROW_5_Left_15
*114 PHY_EDGE_ROW_5_Right_5
*115 PHY_EDGE_ROW_6_Left_16
*116 PHY_EDGE_ROW_6_Right_6
*117 PHY_EDGE_ROW_7_Left_17
*118 PHY_EDGE_ROW_7_Right_7
*119 PHY_EDGE_ROW_8_Left_18
*120 PHY_EDGE_ROW_8_Right_8
*121 PHY_EDGE_ROW_9_Left_19
*122 PHY_EDGE_ROW_9_Right_9
*123 TAP_TAPCELL_ROW_0_20
*124 TAP_TAPCELL_ROW_0_21
*125 TAP_TAPCELL_ROW_1_22
*126 TAP_TAPCELL_ROW_2_23
*127 TAP_TAPCELL_ROW_3_24
*128 TAP_TAPCELL_ROW_4_25
*129 TAP_TAPCELL_ROW_5_26
*130 TAP_TAPCELL_ROW_6_27
*131 TAP_TAPCELL_ROW_7_28
*132 TAP_TAPCELL_ROW_8_29
*133 TAP_TAPCELL_ROW_9_30
*134 TAP_TAPCELL_ROW_9_31
*135 _3_
*136 _4_
*137 _5_
*138 _6_
*139 _7_
*140 _8_
*141 _9_
*142 input1
*143 input2
*144 input3
*145 input4
*146 output5
*147 output6
*148 output7
*149 output8

*PORTS
A[0] I
A[1] I
B[0] I
B[1] I
P[0] O
P[1] O
P[2] O
P[3] O

*D_NET *1 0.000396126
*CONN
*P A[0] I
*I *142:A I *D sky130_fd_sc_hd__buf_1
*CAP
1 A[0] 0.000155395
2 *142:A 0.000155395
3 *142:A P[2] 8.53361e-05
*RES
1 A[0] *142:A 4.84677 
*END

*D_NET *2 0.000569958
*CONN
*P A[1] I
*I *143:A I *D sky130_fd_sc_hd__buf_1
*CAP
1 A[1] 0.000200872
2 *143:A 0.000200872
3 *143:A P[2] 8.53361e-05
4 *143:A P[3] 8.28789e-05
*RES
1 A[1] *143:A 6.12177 
*END

*D_NET *3 0.000438671
*CONN
*P B[0] I
*I *144:A I *D sky130_fd_sc_hd__buf_1
*CAP
1 B[0] 0.000180814
2 *144:A 0.000180814
3 *144:A P[3] 7.70436e-05
*RES
1 B[0] *144:A 5.10177 
*END

*D_NET *4 0.000641155
*CONN
*P B[1] I
*I *145:A I *D sky130_fd_sc_hd__buf_1
*CAP
1 B[1] 0.000305759
2 *145:A 0.000305759
3 *145:A P[1] 2.96366e-05
*RES
1 B[1] *145:A 7.8543 
*END

*D_NET *5 0.00047499
*CONN
*P P[0] O
*I *146:X O *D sky130_fd_sc_hd__buf_2
*CAP
1 P[0] 0.000223241
2 *146:X 0.000223241
3 P[0] P[1] 2.85068e-05
*RES
1 *146:X P[0] 4.90503 
*END

*D_NET *6 0.000661148
*CONN
*P P[1] O
*I *147:X O *D sky130_fd_sc_hd__buf_2
*CAP
1 P[1] 0.000301502
2 *147:X 0.000301502
3 P[0] P[1] 2.85068e-05
4 *145:A P[1] 2.96366e-05
*RES
1 *147:X P[1] 7.1793 
*END

*D_NET *7 0.000590749
*CONN
*P P[2] O
*I *148:X O *D sky130_fd_sc_hd__buf_2
*CAP
1 P[2] 0.000210038
2 *148:X 0.000210038
3 P[2] P[3] 0
4 *142:A P[2] 8.53361e-05
5 *143:A P[2] 8.53361e-05
*RES
1 *148:X P[2] 5.92503 
*END

*D_NET *8 0.000476039
*CONN
*P P[3] O
*I *149:X O *D sky130_fd_sc_hd__buf_2
*CAP
1 P[3] 0.000152202
2 *149:X 0.000152202
3 P[3] *149:A 1.17114e-05
4 P[2] P[3] 0
5 *143:A P[3] 8.28789e-05
6 *144:A P[3] 7.70436e-05
*RES
1 *149:X P[3] 4.90503 
*END

*D_NET *11 0.00150833
*CONN
*I *138:A2 I *D sky130_fd_sc_hd__o21a_1
*I *140:A2 I *D sky130_fd_sc_hd__o211a_1
*I *136:Y O *D sky130_fd_sc_hd__inv_2
*CAP
1 *138:A2 9.97047e-05
2 *140:A2 0
3 *136:Y 0.000134036
4 *11:12 0.000233741
5 *138:A2 *138:A1 0.000403227
6 *138:A2 *138:B1 0.000164237
7 *138:A2 *140:C1 3.21903e-06
8 *138:A2 *141:B 5.07419e-05
9 *138:A2 *15:28 0.000124895
10 *138:A2 *16:25 0.000150653
11 *138:A2 *17:19 1.61831e-05
12 *11:12 *137:D 5.30673e-05
13 *11:12 *141:D 4.40812e-05
14 *11:12 *15:18 9.50342e-06
15 *11:12 *15:28 2.10433e-05
*RES
1 *136:Y *11:12 7.775 
2 *11:12 *140:A2 1.6 
3 *11:12 *138:A2 6.55 
*END

*D_NET *12 0.00132032
*CONN
*I *139:A2 I *D sky130_fd_sc_hd__o21ba_1
*I *138:X O *D sky130_fd_sc_hd__o21a_1
*CAP
1 *139:A2 0.00017969
2 *138:X 0.00017969
3 *139:A2 *139:A1 5.94962e-05
4 *139:A2 *139:B1_N 1.37328e-05
5 *139:A2 *17:8 2.30292e-05
6 *139:A2 *17:12 0.00033416
7 *139:A2 *18:6 0.000530516
*RES
1 *138:X *139:A2 11.6 
*END

*D_NET *13 0.000351304
*CONN
*I *140:A1 I *D sky130_fd_sc_hd__o211a_1
*I *135:Y O *D sky130_fd_sc_hd__inv_2
*CAP
1 *140:A1 3.97587e-05
2 *135:Y 3.97587e-05
3 *140:A1 *141:B 6.52265e-05
4 *140:A1 *148:A 8.8266e-05
5 *140:A1 *16:25 0.000118294
*RES
1 *135:Y *140:A1 5.03 
*END

*D_NET *14 0.00360801
*CONN
*I *141:D I *D sky130_fd_sc_hd__and4_1
*I *136:A I *D sky130_fd_sc_hd__inv_2
*I *137:D I *D sky130_fd_sc_hd__and4_1
*I *142:X O *D sky130_fd_sc_hd__buf_1
*CAP
1 *141:D 0.000544247
2 *136:A 0
3 *137:D 0.00035268
4 *142:X 0.000711974
5 *14:12 0.00035268
6 *14:10 0.00125622
7 *141:D *141:B 0
8 *141:D *15:8 4.99619e-05
9 *141:D *15:18 0.000243094
10 *141:D *16:10 0
11 *141:D *16:16 0
12 *11:12 *137:D 5.30673e-05
13 *11:12 *141:D 4.40812e-05
*RES
1 *142:X *14:10 11.895 
2 *14:10 *14:12 2 
3 *14:12 *137:D 11.135 
4 *14:12 *136:A 1.6 
5 *14:10 *141:D 11.85 
*END

*D_NET *15 0.00297239
*CONN
*I *141:C I *D sky130_fd_sc_hd__and4_1
*I *140:B1 I *D sky130_fd_sc_hd__o211a_1
*I *137:C I *D sky130_fd_sc_hd__and4_1
*I *138:B1 I *D sky130_fd_sc_hd__o21a_1
*I *143:X O *D sky130_fd_sc_hd__buf_1
*CAP
1 *141:C 0
2 *140:B1 0
3 *137:C 0
4 *138:B1 8.63632e-05
5 *143:X 0.000179205
6 *15:28 0.000240852
7 *15:18 0.00056993
8 *15:8 0.000594646
9 *138:B1 *138:A1 9.55816e-05
10 *138:B1 *140:C1 0
11 *138:B1 *17:12 0.000263808
12 *138:B1 *18:6 1.16854e-05
13 *15:8 *149:A 0.000241483
14 *15:28 *17:12 2.30292e-05
15 *15:28 *17:19 5.30673e-05
16 *138:A2 *138:B1 0.000164237
17 *138:A2 *15:28 0.000124895
18 *141:D *15:8 4.99619e-05
19 *141:D *15:18 0.000243094
20 *11:12 *15:18 9.50342e-06
21 *11:12 *15:28 2.10433e-05
*RES
1 *143:X *15:8 5.515 
2 *15:8 *15:18 9.455 
3 *15:18 *15:28 4.745 
4 *15:28 *138:B1 5.29 
5 *15:28 *137:C 1.6 
6 *15:18 *140:B1 3.6 
7 *15:8 *141:C 1.6 
*END

*D_NET *16 0.0035667
*CONN
*I *141:A I *D sky130_fd_sc_hd__and4_1
*I *137:A I *D sky130_fd_sc_hd__and4_1
*I *138:A1 I *D sky130_fd_sc_hd__o21a_1
*I *135:A I *D sky130_fd_sc_hd__inv_2
*I *144:X O *D sky130_fd_sc_hd__buf_1
*CAP
1 *141:A 0
2 *137:A 0
3 *138:A1 0.000167987
4 *135:A 0
5 *144:X 0.000618069
6 *16:25 0.000414257
7 *16:16 0.000420114
8 *16:10 0.000791913
9 *138:A1 *18:6 0.000161985
10 *16:16 *141:B 0.00011741
11 *16:16 *148:A 8.8266e-05
12 *16:25 *141:B 7.68414e-06
13 *16:25 *148:A 1.12578e-05
14 *138:A2 *138:A1 0.000403227
15 *138:A2 *16:25 0.000150653
16 *138:B1 *138:A1 9.55816e-05
17 *140:A1 *16:25 0.000118294
18 *141:D *16:10 0
19 *141:D *16:16 0
*RES
1 *144:X *16:10 11.355 
2 *16:10 *16:16 5.45 
3 *16:16 *135:A 1.6 
4 *16:16 *16:25 4.515 
5 *16:25 *138:A1 6.565 
6 *16:25 *137:A 1.6 
7 *16:10 *141:A 3.6 
*END

*D_NET *17 0.0049293
*CONN
*I *139:A1 I *D sky130_fd_sc_hd__o21ba_1
*I *141:B I *D sky130_fd_sc_hd__and4_1
*I *140:C1 I *D sky130_fd_sc_hd__o211a_1
*I *137:B I *D sky130_fd_sc_hd__and4_1
*I *145:X O *D sky130_fd_sc_hd__buf_1
*CAP
1 *139:A1 2.14746e-05
2 *141:B 0.000495794
3 *140:C1 3.63241e-05
4 *137:B 0
5 *145:X 0.000295012
6 *17:19 0.00060731
7 *17:12 0.000944786
8 *17:8 0.00118608
9 *141:B *148:A 0.000278111
10 *17:8 *18:6 3.99879e-05
11 *17:12 *18:6 7.36394e-06
12 *138:A2 *140:C1 3.21903e-06
13 *138:A2 *141:B 5.07419e-05
14 *138:A2 *17:19 1.61831e-05
15 *138:B1 *140:C1 0
16 *138:B1 *17:12 0.000263808
17 *139:A2 *139:A1 5.94962e-05
18 *139:A2 *17:8 2.30292e-05
19 *139:A2 *17:12 0.00033416
20 *140:A1 *141:B 6.52265e-05
21 *141:D *141:B 0
22 *15:28 *17:12 2.30292e-05
23 *15:28 *17:19 5.30673e-05
24 *16:16 *141:B 0.00011741
25 *16:25 *141:B 7.68414e-06
*RES
1 *145:X *17:8 6.205 
2 *17:8 *17:12 11.85 
3 *17:12 *137:B 1.6 
4 *17:12 *17:19 1.14 
5 *17:19 *140:C1 2.215 
6 *17:19 *141:B 13.445 
7 *17:8 *139:A1 2.41 
*END

*D_NET *18 0.00332462
*CONN
*I *146:A I *D sky130_fd_sc_hd__buf_2
*I *139:B1_N I *D sky130_fd_sc_hd__o21ba_1
*I *137:X O *D sky130_fd_sc_hd__and4_1
*CAP
1 *146:A 0.000361599
2 *139:B1_N 4.44225e-05
3 *137:X 0.000834166
4 *18:6 0.00124019
5 *146:A *147:A 7.89689e-05
6 *138:A1 *18:6 0.000161985
7 *138:B1 *18:6 1.16854e-05
8 *139:A2 *139:B1_N 1.37328e-05
9 *139:A2 *18:6 0.000530516
10 *17:8 *18:6 3.99879e-05
11 *17:12 *18:6 7.36394e-06
*RES
1 *137:X *18:6 13.09 
2 *18:6 *139:B1_N 2.47 
3 *18:6 *146:A 11.54 
*END

*D_NET *19 0.000477612
*CONN
*I *147:A I *D sky130_fd_sc_hd__buf_2
*I *139:X O *D sky130_fd_sc_hd__o21ba_1
*CAP
1 *147:A 0.000199321
2 *139:X 0.000199321
3 *146:A *147:A 7.89689e-05
*RES
1 *139:X *147:A 10.665 
*END

*D_NET *20 0.00111451
*CONN
*I *148:A I *D sky130_fd_sc_hd__buf_2
*I *140:X O *D sky130_fd_sc_hd__o211a_1
*CAP
1 *148:A 0.000324302
2 *140:X 0.000324302
3 *140:A1 *148:A 8.8266e-05
4 *141:B *148:A 0.000278111
5 *16:16 *148:A 8.8266e-05
6 *16:25 *148:A 1.12578e-05
*RES
1 *140:X *148:A 9.53 
*END

*D_NET *21 0.000728882
*CONN
*I *149:A I *D sky130_fd_sc_hd__buf_2
*I *141:X O *D sky130_fd_sc_hd__and4_1
*CAP
1 *149:A 0.000237844
2 *141:X 0.000237844
3 P[3] *149:A 1.17114e-05
4 *15:8 *149:A 0.000241483
*RES
1 *141:X *149:A 10.755 
*END
