*SPEF "ieee 1481-1999"
*DESIGN "mult4_SARSANPASOS_VENTAJA_RUIDO_e8_SARSA_RUIDO_e9_SARSA_RUIDO_e9_SARSA_RUIDO_e9"
*DATE "14:21:58 Tuesday September 16, 2025"
*VENDOR "The OpenROAD Project"
*PROGRAM "OpenROAD"
*VERSION "edf00dff99f6c40d67a30c0e22a8191c5d2ed9d6"
*DESIGN_FLOW "NAME_SCOPE LOCAL" "PIN_CAP NONE"
*DIVIDER /
*DELIMITER :
*BUS_DELIMITER []
*T_UNIT 1 NS
*C_UNIT 1 PF
*R_UNIT 1 OHM
*L_UNIT 1 HENRY

*NAME_MAP
*1 A[0]
*2 A[1]
*3 A[2]
*4 A[3]
*5 B[0]
*6 B[1]
*7 B[2]
*8 B[3]
*9 P[0]
*10 P[1]
*11 P[2]
*12 P[3]
*13 P[4]
*14 P[5]
*15 P[6]
*16 P[7]
*19 _00_
*20 _01_
*21 _02_
*22 _03_
*23 _04_
*24 _05_
*25 _06_
*26 _07_
*27 _08_
*28 _09_
*29 _10_
*30 _11_
*31 _12_
*32 _13_
*33 _14_
*34 _15_
*35 _16_
*36 _17_
*37 _18_
*38 _19_
*39 _20_
*40 _21_
*41 _22_
*42 _23_
*43 _24_
*44 _25_
*45 mul_ll\.pp1
*46 net1
*47 net10
*48 net11
*49 net12
*50 net13
*51 net14
*52 net15
*53 net16
*54 net2
*55 net3
*56 net4
*57 net5
*58 net6
*59 net7
*60 net8
*61 net9
*62 FILLER_0_15
*63 FILLER_0_20
*64 FILLER_0_3
*65 FILLER_0_36
*66 FILLER_0_42
*67 FILLER_0_48
*68 FILLER_0_57
*69 FILLER_0_69
*70 FILLER_1_15
*71 FILLER_1_3
*72 FILLER_1_44
*73 FILLER_1_62
*74 FILLER_1_74
*75 FILLER_1_80
*76 FILLER_2_18
*77 FILLER_2_22
*78 FILLER_2_26
*79 FILLER_2_37
*80 FILLER_2_6
*81 FILLER_2_75
*82 FILLER_3_23
*83 FILLER_3_3
*84 FILLER_3_35
*85 FILLER_3_47
*86 FILLER_3_55
*87 FILLER_3_57
*88 FILLER_3_64
*89 FILLER_3_76
*90 FILLER_3_80
*91 FILLER_4_13
*92 FILLER_4_21
*93 FILLER_4_47
*94 FILLER_4_59
*95 FILLER_4_71
*96 FILLER_5_19
*97 FILLER_5_31
*98 FILLER_5_43
*99 FILLER_5_55
*100 FILLER_5_7
*101 FILLER_5_73
*102 FILLER_6_20
*103 FILLER_6_43
*104 FILLER_6_55
*105 FILLER_6_6
*106 FILLER_6_67
*107 FILLER_6_79
*108 FILLER_7_15
*109 FILLER_7_27
*110 FILLER_7_40
*111 FILLER_7_46
*112 FILLER_7_54
*113 FILLER_7_64
*114 FILLER_7_7
*115 FILLER_7_76
*116 FILLER_8_15
*117 FILLER_8_27
*118 FILLER_8_29
*119 FILLER_8_3
*120 FILLER_8_41
*121 FILLER_8_53
*122 FILLER_8_65
*123 FILLER_8_77
*124 FILLER_9_19
*125 FILLER_9_27
*126 FILLER_9_29
*127 FILLER_9_41
*128 FILLER_9_53
*129 FILLER_9_57
*130 FILLER_9_69
*131 FILLER_9_7
*132 PHY_EDGE_ROW_0_Left_10
*133 PHY_EDGE_ROW_0_Right_0
*134 PHY_EDGE_ROW_1_Left_11
*135 PHY_EDGE_ROW_1_Right_1
*136 PHY_EDGE_ROW_2_Left_12
*137 PHY_EDGE_ROW_2_Right_2
*138 PHY_EDGE_ROW_3_Left_13
*139 PHY_EDGE_ROW_3_Right_3
*140 PHY_EDGE_ROW_4_Left_14
*141 PHY_EDGE_ROW_4_Right_4
*142 PHY_EDGE_ROW_5_Left_15
*143 PHY_EDGE_ROW_5_Right_5
*144 PHY_EDGE_ROW_6_Left_16
*145 PHY_EDGE_ROW_6_Right_6
*146 PHY_EDGE_ROW_7_Left_17
*147 PHY_EDGE_ROW_7_Right_7
*148 PHY_EDGE_ROW_8_Left_18
*149 PHY_EDGE_ROW_8_Right_8
*150 PHY_EDGE_ROW_9_Left_19
*151 PHY_EDGE_ROW_9_Right_9
*152 TAP_TAPCELL_ROW_0_20
*153 TAP_TAPCELL_ROW_0_21
*154 TAP_TAPCELL_ROW_1_22
*155 TAP_TAPCELL_ROW_2_23
*156 TAP_TAPCELL_ROW_3_24
*157 TAP_TAPCELL_ROW_4_25
*158 TAP_TAPCELL_ROW_5_26
*159 TAP_TAPCELL_ROW_6_27
*160 TAP_TAPCELL_ROW_7_28
*161 TAP_TAPCELL_ROW_8_29
*162 TAP_TAPCELL_ROW_9_30
*163 TAP_TAPCELL_ROW_9_31
*164 _26_
*165 _27_
*166 _28_
*167 _29_
*168 _30_
*169 _31_
*170 _32_
*171 _33_
*172 _34_
*173 _35_
*174 _36_
*175 _37_
*176 _38_
*177 _39_
*178 _40_
*179 _41_
*180 _42_
*181 _43_
*182 _44_
*183 _45_
*184 _46_
*185 _47_
*186 _48_
*187 _49_
*188 _50_
*189 _51_
*190 _52_
*191 _53_
*192 _54_
*193 _55_
*194 _56_
*195 _57_
*196 _58_
*197 _59_
*198 _60_
*199 input1
*200 input2
*201 input3
*202 input4
*203 input5
*204 input6
*205 input7
*206 input8
*207 output10
*208 output11
*209 output12
*210 output13
*211 output14
*212 output15
*213 output16
*214 output9

*PORTS
A[0] I
A[1] I
A[2] I
A[3] I
B[0] I
B[1] I
B[2] I
B[3] I
P[0] O
P[1] O
P[2] O
P[3] O
P[4] O
P[5] O
P[6] O
P[7] O

*D_NET *1 0.000774077
*CONN
*P A[0] I
*I *199:A I *D sky130_fd_sc_hd__buf_1
*CAP
1 A[0] 0.000387038
2 *199:A 0.000387038
3 *199:A P[0] 0
4 *199:A *201:A 0
5 *199:A *58:55 0
*RES
1 A[0] *199:A 10.455 
*END

*D_NET *2 0.000572527
*CONN
*P A[1] I
*I *200:A I *D sky130_fd_sc_hd__buf_1
*CAP
1 A[1] 0.000272764
2 *200:A 0.000272764
3 *200:A *204:A 2.69997e-05
*RES
1 A[1] *200:A 7.0893 
*END

*D_NET *3 0.000811484
*CONN
*P A[2] I
*I *201:A I *D sky130_fd_sc_hd__clkbuf_2
*CAP
1 A[2] 0.000405742
2 *201:A 0.000405742
3 *199:A *201:A 0
*RES
1 A[2] *201:A 10.44 
*END

*D_NET *4 0.000503623
*CONN
*P A[3] I
*I *202:A I *D sky130_fd_sc_hd__buf_1
*CAP
1 A[3] 0.000221853
2 *202:A 0.000221853
3 *202:A P[6] 0
4 *202:A P[7] 3.14094e-05
5 *202:A *206:A 2.85068e-05
*RES
1 A[3] *202:A 5.35677 
*END

*D_NET *5 0.000786235
*CONN
*P B[0] I
*I *203:A I *D sky130_fd_sc_hd__buf_1
*CAP
1 B[0] 0.000393118
2 *203:A 0.000393118
3 *203:A *205:A 0
4 *203:A *58:36 0
*RES
1 B[0] *203:A 10.35 
*END

*D_NET *6 0.000651011
*CONN
*P B[1] I
*I *204:A I *D sky130_fd_sc_hd__dlymetal6s2s_1
*CAP
1 B[1] 0.000297188
2 *204:A 0.000297188
3 *204:A *206:A 2.96366e-05
4 *200:A *204:A 2.69997e-05
*RES
1 B[1] *204:A 7.8543 
*END

*D_NET *7 0.000895094
*CONN
*P B[2] I
*I *205:A I *D sky130_fd_sc_hd__buf_1
*CAP
1 B[2] 0.000399913
2 *205:A 0.000399913
3 *205:A P[2] 0
4 *205:A *208:A 8.53113e-06
5 *205:A *58:36 7.58604e-05
6 *205:A *59:8 1.08758e-05
7 *203:A *205:A 0
*RES
1 B[2] *205:A 10.695 
*END

*D_NET *8 0.000669018
*CONN
*P B[3] I
*I *206:A I *D sky130_fd_sc_hd__clkbuf_2
*CAP
1 B[3] 0.000305437
2 *206:A 0.000305437
3 *202:A *206:A 2.85068e-05
4 *204:A *206:A 2.96366e-05
*RES
1 B[3] *206:A 7.9443 
*END

*D_NET *9 0.000929477
*CONN
*P P[0] O
*I *214:X O *D sky130_fd_sc_hd__buf_2
*CAP
1 P[0] 0.000415312
2 *214:X 0.000415312
3 P[0] P[2] 0
4 P[0] *167:B2 1.22572e-05
5 P[0] *58:55 8.65961e-05
6 *199:A P[0] 0
*RES
1 *214:X P[0] 10.53 
*END

*D_NET *10 0.00047809
*CONN
*P P[1] O
*I *207:X O *D sky130_fd_sc_hd__buf_2
*CAP
1 P[1] 0.000192771
2 *207:X 0.000192771
3 P[1] P[3] 9.25475e-05
4 P[1] *198:A 0
*RES
1 *207:X P[1] 5.16003 
*END

*D_NET *11 0.00113256
*CONN
*P P[2] O
*I *208:X O *D sky130_fd_sc_hd__buf_2
*CAP
1 P[2] 0.000458864
2 *208:X 0.000458864
3 P[2] *167:A2 5.16348e-05
4 P[2] *208:A 0
5 P[2] *58:55 0
6 P[2] *59:8 0.000163199
7 P[0] P[2] 0
8 *205:A P[2] 0
*RES
1 *208:X P[2] 11.895 
*END

*D_NET *12 0.000597683
*CONN
*P P[3] O
*I *209:X O *D sky130_fd_sc_hd__buf_2
*CAP
1 P[3] 0.000222223
2 *209:X 0.000222223
3 P[3] *209:A 6.06899e-05
4 P[1] P[3] 9.25475e-05
*RES
1 *209:X P[3] 5.92503 
*END

*D_NET *13 0.000452655
*CONN
*P P[4] O
*I *210:X O *D sky130_fd_sc_hd__buf_2
*CAP
1 P[4] 0.000173929
2 *210:X 0.000173929
3 P[4] P[5] 9.25475e-05
4 P[4] *210:A 1.22505e-05
*RES
1 *210:X P[4] 4.90503 
*END

*D_NET *14 0.000597683
*CONN
*P P[5] O
*I *211:X O *D sky130_fd_sc_hd__buf_2
*CAP
1 P[5] 0.000222223
2 *211:X 0.000222223
3 P[5] *211:A 6.06899e-05
4 P[4] P[5] 9.25475e-05
*RES
1 *211:X P[5] 5.92503 
*END

*D_NET *15 0.000612864
*CONN
*P P[6] O
*I *212:X O *D sky130_fd_sc_hd__buf_2
*CAP
1 P[6] 0.000266264
2 *212:X 0.000266264
3 P[6] P[7] 2.24901e-05
4 P[6] *212:A 5.78448e-05
5 *202:A P[6] 0
*RES
1 *212:X P[6] 5.92503 
*END

*D_NET *16 0.000660243
*CONN
*P P[7] O
*I *213:X O *D sky130_fd_sc_hd__buf_2
*CAP
1 P[7] 0.000303172
2 *213:X 0.000303172
3 P[6] P[7] 2.24901e-05
4 *202:A P[7] 3.14094e-05
*RES
1 *213:X P[7] 7.1793 
*END

*D_NET *19 0.000635271
*CONN
*I *169:A I *D sky130_fd_sc_hd__xor2_1
*I *165:Y O *D sky130_fd_sc_hd__nand2_1
*CAP
1 *169:A 0.000207638
2 *165:Y 0.000207638
3 *169:A *54:10 8.73389e-06
4 *169:A *57:12 0.000211262
*RES
1 *165:Y *169:A 10.41 
*END

*D_NET *20 0.00104108
*CONN
*I *181:B1 I *D sky130_fd_sc_hd__a32o_1
*I *168:A2 I *D sky130_fd_sc_hd__a21bo_1
*I *166:X O *D sky130_fd_sc_hd__and3_1
*CAP
1 *181:B1 2.18638e-05
2 *168:A2 0.000210698
3 *166:X 0.000126281
4 *20:8 0.000358843
5 *168:A2 *168:A1 8.94334e-05
6 *168:A2 *168:B1_N 4.66108e-05
7 *168:A2 *181:A3 1.86244e-05
8 *181:B1 *181:A3 2.5015e-05
9 *20:8 *166:C 5.91366e-05
10 *20:8 *181:A3 6.60042e-05
11 *20:8 *58:64 1.85674e-05
*RES
1 *166:X *20:8 4.135 
2 *20:8 *168:A2 5.185 
3 *20:8 *181:B1 2.1625 
*END

*D_NET *21 0.00107089
*CONN
*I *181:A3 I *D sky130_fd_sc_hd__a32o_1
*I *168:B1_N I *D sky130_fd_sc_hd__a21bo_1
*I *167:X O *D sky130_fd_sc_hd__a22o_1
*CAP
1 *181:A3 0.000120207
2 *168:B1_N 1.36534e-05
3 *167:X 6.62153e-05
4 *21:8 0.000200076
5 *168:B1_N *168:A1 4.66108e-05
6 *181:A3 *166:C 0.000239944
7 *181:A3 *167:A2 4.9968e-05
8 *181:A3 *168:A1 8.23457e-05
9 *181:A3 *58:36 0
10 *21:8 *167:A2 9.56122e-05
11 *21:8 *208:A 0
12 *21:8 *58:36 0
13 *168:A2 *168:B1_N 4.66108e-05
14 *168:A2 *181:A3 1.86244e-05
15 *181:B1 *181:A3 2.5015e-05
16 *20:8 *181:A3 6.60042e-05
*RES
1 *167:X *21:8 4.98 
2 *21:8 *168:B1_N 4.05 
3 *21:8 *181:A3 7.095 
*END

*D_NET *22 0.000223231
*CONN
*I *169:B I *D sky130_fd_sc_hd__xor2_1
*I *168:X O *D sky130_fd_sc_hd__a21bo_1
*CAP
1 *169:B 9.78542e-05
2 *168:X 9.78542e-05
3 *169:B *208:A 2.75229e-05
*RES
1 *168:X *169:B 4.685 
*END

*D_NET *23 0.000658888
*CONN
*I *194:A I *D sky130_fd_sc_hd__xnor2_1
*I *170:Y O *D sky130_fd_sc_hd__nand2_1
*CAP
1 *194:A 0.000188585
2 *170:Y 0.000188585
3 *194:A *194:B 0.000281718
*RES
1 *170:Y *194:A 11.01 
*END

*D_NET *24 0.00139163
*CONN
*I *174:A1 I *D sky130_fd_sc_hd__a21oi_1
*I *186:B1_N I *D sky130_fd_sc_hd__a21boi_1
*I *175:A I *D sky130_fd_sc_hd__and3_1
*I *171:Y O *D sky130_fd_sc_hd__nand4_1
*CAP
1 *174:A1 0
2 *186:B1_N 0
3 *175:A 8.42449e-05
4 *171:Y 0.000131062
5 *24:22 0.000227909
6 *24:12 0.000274725
7 *175:A *175:C 3.75126e-05
8 *175:A *186:A1 4.77757e-05
9 *175:A *25:27 0.000122325
10 *175:A *26:27 0.000158434
11 *175:A *27:8 1.60203e-05
12 *24:12 *25:10 9.27596e-05
13 *24:12 *25:27 8.53113e-06
14 *24:12 *26:10 3.23391e-05
15 *24:12 *58:28 3.64998e-06
16 *24:22 *25:27 6.77476e-05
17 *24:22 *27:8 8.65961e-05
*RES
1 *171:Y *24:12 7.61 
2 *24:12 *24:22 3.105 
3 *24:22 *175:A 4.135 
4 *24:22 *186:B1_N 1.6 
5 *24:12 *174:A1 1.6 
*END

*D_NET *25 0.00242021
*CONN
*I *186:A1 I *D sky130_fd_sc_hd__a21boi_1
*I *175:B I *D sky130_fd_sc_hd__and3_1
*I *174:A2 I *D sky130_fd_sc_hd__a21oi_1
*I *172:X O *D sky130_fd_sc_hd__a22o_1
*CAP
1 *186:A1 2.65562e-05
2 *175:B 0.000202779
3 *174:A2 8.03789e-06
4 *172:X 0.000247931
5 *25:27 0.000468122
6 *25:10 0.000494756
7 *174:A2 *26:27 0
8 *174:A2 *60:12 0
9 *175:B *38:10 0.000197826
10 *175:B *55:54 0.000113797
11 *25:10 *171:D 4.82863e-05
12 *25:10 *172:A1 9.80943e-06
13 *25:10 *26:10 3.77199e-05
14 *25:10 *54:16 0
15 *25:10 *58:28 0.000170617
16 *25:10 *58:36 1.52184e-05
17 *25:10 *60:12 0
18 *25:27 *26:10 2.92496e-05
19 *25:27 *26:27 1.03592e-05
20 *175:A *186:A1 4.77757e-05
21 *175:A *25:27 0.000122325
22 *24:12 *25:10 9.27596e-05
23 *24:12 *25:27 8.53113e-06
24 *24:22 *25:27 6.77476e-05
*RES
1 *172:X *25:10 8.3925 
2 *25:10 *174:A2 3.8325 
3 *25:10 *25:27 5.4575 
4 *25:27 *175:B 8.81 
5 *25:27 *186:A1 2.05 
*END

*D_NET *26 0.00157079
*CONN
*I *175:C I *D sky130_fd_sc_hd__and3_1
*I *186:A2 I *D sky130_fd_sc_hd__a21boi_1
*I *174:B1 I *D sky130_fd_sc_hd__a21oi_1
*I *173:X O *D sky130_fd_sc_hd__and2_1
*CAP
1 *175:C 6.71977e-05
2 *186:A2 0
3 *174:B1 0
4 *173:X 0.000224694
5 *26:27 0.000219801
6 *26:10 0.000377297
7 *175:C *27:8 0.00011227
8 *26:10 *54:36 8.8266e-05
9 *26:10 *55:54 0
10 *26:10 *58:36 0
11 *26:27 *27:8 0.000156758
12 *26:27 *55:54 1.88904e-05
13 *174:A2 *26:27 0
14 *175:A *175:C 3.75126e-05
15 *175:A *26:27 0.000158434
16 *24:12 *26:10 3.23391e-05
17 *25:10 *26:10 3.77199e-05
18 *25:27 *26:10 2.92496e-05
19 *25:27 *26:27 1.03592e-05
*RES
1 *173:X *26:10 7.56 
2 *26:10 *174:B1 3.6 
3 *26:10 *26:27 5.09 
4 *26:27 *186:A2 1.6 
5 *26:27 *175:C 3.265 
*END

*D_NET *27 0.00155533
*CONN
*I *184:A I *D sky130_fd_sc_hd__nor3_1
*I *176:A I *D sky130_fd_sc_hd__nor2_1
*I *174:Y O *D sky130_fd_sc_hd__a21oi_1
*CAP
1 *184:A 0
2 *176:A 0.000223272
3 *174:Y 0.000170712
4 *27:8 0.000393984
5 *176:A *176:B 5.30574e-05
6 *176:A *28:6 2.16269e-05
7 *27:8 *28:6 4.94457e-05
8 *27:8 *38:10 0.000271592
9 *175:A *27:8 1.60203e-05
10 *175:C *27:8 0.00011227
11 *24:22 *27:8 8.65961e-05
12 *26:27 *27:8 0.000156758
*RES
1 *174:Y *27:8 6.55 
2 *27:8 *176:A 5.5975 
3 *27:8 *184:A 1.6 
*END

*D_NET *28 0.000509711
*CONN
*I *176:B I *D sky130_fd_sc_hd__nor2_1
*I *184:B I *D sky130_fd_sc_hd__nor3_1
*I *175:X O *D sky130_fd_sc_hd__and3_1
*CAP
1 *176:B 0.000123236
2 *184:B 0
3 *175:X 6.37259e-05
4 *28:6 0.000186962
5 *176:B *29:10 1.16578e-05
6 *176:A *176:B 5.30574e-05
7 *176:A *28:6 2.16269e-05
8 *27:8 *28:6 4.94457e-05
*RES
1 *175:X *28:6 2.74 
2 *28:6 *184:B 1.6 
3 *28:6 *176:B 3.7 
*END

*D_NET *29 0.00160282
*CONN
*I *190:B1 I *D sky130_fd_sc_hd__o21a_1
*I *185:A I *D sky130_fd_sc_hd__xnor2_1
*I *176:Y O *D sky130_fd_sc_hd__nor2_1
*CAP
1 *190:B1 2.16763e-05
2 *185:A 0.000125627
3 *176:Y 0.000478689
4 *29:10 0.000625993
5 *185:A *183:A 4.94853e-05
6 *185:A *183:B 0.000160641
7 *185:A *190:A1 4.82863e-05
8 *190:B1 *35:29 3.05373e-05
9 *190:B1 *60:85 0
10 *29:10 *35:12 3.86607e-05
11 *29:10 *35:29 1.1561e-05
12 *29:10 *60:85 0
13 *176:B *29:10 1.16578e-05
*RES
1 *176:Y *29:10 9.315 
2 *29:10 *185:A 6.39 
3 *29:10 *190:B1 4.215 
*END

*D_NET *30 0.000886673
*CONN
*I *187:A I *D sky130_fd_sc_hd__and2_1
*I *188:A I *D sky130_fd_sc_hd__nor2_1
*I *177:Y O *D sky130_fd_sc_hd__nand2_1
*CAP
1 *187:A 0.000171242
2 *188:A 0
3 *177:Y 6.52417e-05
4 *30:10 0.000236483
5 *187:A *177:A 4.00257e-05
6 *187:A *187:B 0.000217399
7 *187:A *189:A 5.83121e-06
8 *187:A *189:B 6.36578e-05
9 *30:10 *177:A 8.7152e-06
10 *30:10 *187:B 8.7152e-06
11 *30:10 *192:A3 1.33269e-05
12 *30:10 *38:10 5.23974e-05
13 *30:10 *60:74 3.63701e-06
*RES
1 *177:Y *30:10 4.665 
2 *30:10 *188:A 3.6 
3 *30:10 *187:A 7.23 
*END

*D_NET *31 0.00111217
*CONN
*I *183:A I *D sky130_fd_sc_hd__nor2_1
*I *190:A1 I *D sky130_fd_sc_hd__o21a_1
*I *178:X O *D sky130_fd_sc_hd__and3_1
*CAP
1 *183:A 0.000158296
2 *190:A1 1.8055e-05
3 *178:X 0.000172256
4 *31:10 0.000348607
5 *183:A *183:B 1.4688e-05
6 *183:A *185:B 9.91257e-05
7 *183:A *210:A 4.99619e-05
8 *31:10 *35:12 0.000125529
9 *31:10 *35:29 2.7881e-05
10 *185:A *183:A 4.94853e-05
11 *185:A *190:A1 4.82863e-05
*RES
1 *178:X *31:10 9.02 
2 *31:10 *190:A1 2.05 
3 *31:10 *183:A 5.095 
*END

*D_NET *32 0.00226647
*CONN
*I *195:A1 I *D sky130_fd_sc_hd__a21oi_1
*I *182:A I *D sky130_fd_sc_hd__and3_1
*I *184:C I *D sky130_fd_sc_hd__nor3_1
*I *179:Y O *D sky130_fd_sc_hd__nand3_1
*CAP
1 *195:A1 1.94197e-05
2 *182:A 2.66954e-05
3 *184:C 0.00043437
4 *179:Y 0
5 *32:25 0.000283047
6 *32:4 0.000671302
7 *182:A *182:C 9.53428e-06
8 *184:C *55:35 6.41164e-05
9 *195:A1 *182:C 4.12959e-05
10 *195:A1 *196:A 8.57024e-05
11 *195:A1 *196:B 1.37328e-05
12 *32:25 *179:B 6.05513e-05
13 *32:25 *182:C 4.0106e-05
14 *32:25 *196:A 0.000162311
15 *32:25 *33:6 2.30292e-05
16 *32:25 *55:31 0.000319595
17 *32:25 *55:35 1.16578e-05
*RES
1 *179:Y *32:4 1.6 
2 *32:4 *184:C 11.4425 
3 *32:4 *32:25 5.895 
4 *32:25 *182:A 2.215 
5 *32:25 *195:A1 2.755 
*END

*D_NET *33 0.000714356
*CONN
*I *195:A2 I *D sky130_fd_sc_hd__a21oi_1
*I *182:B I *D sky130_fd_sc_hd__and3_1
*I *180:X O *D sky130_fd_sc_hd__a22o_1
*CAP
1 *195:A2 0.000159712
2 *182:B 0
3 *180:X 8.732e-05
4 *33:6 0.000247032
5 *195:A2 *196:A 0.000113237
6 *195:A2 *198:A 0
7 *195:A2 *45:10 0
8 *33:6 *196:A 8.40269e-05
9 *32:25 *33:6 2.30292e-05
*RES
1 *180:X *33:6 2.74 
2 *33:6 *182:B 1.6 
3 *33:6 *195:A2 7.61 
*END

*D_NET *34 0.00315374
*CONN
*I *195:B1 I *D sky130_fd_sc_hd__a21oi_1
*I *182:C I *D sky130_fd_sc_hd__and3_1
*I *181:X O *D sky130_fd_sc_hd__a32o_1
*CAP
1 *195:B1 0
2 *182:C 0.000164987
3 *181:X 0.000848812
4 *34:12 0.0010138
5 *182:C *196:A 1.46e-05
6 *182:C *196:B 2.27585e-05
7 *34:12 *164:A 0.00015896
8 *34:12 *164:B 3.09179e-05
9 *34:12 *166:C 0.000110545
10 *34:12 *198:A 0.000278117
11 *34:12 *45:10 0
12 *34:12 *46:28 0.000389772
13 *34:12 *58:55 1.87488e-07
14 *34:12 *58:64 2.93447e-05
15 *182:A *182:C 9.53428e-06
16 *195:A1 *182:C 4.12959e-05
17 *32:25 *182:C 4.0106e-05
*RES
1 *181:X *34:12 17.18 
2 *34:12 *182:C 4.3 
3 *34:12 *195:B1 1.6 
*END

*D_NET *35 0.00508569
*CONN
*I *196:A I *D sky130_fd_sc_hd__nor2_1
*I *192:A3 I *D sky130_fd_sc_hd__a311o_1
*I *190:A2 I *D sky130_fd_sc_hd__o21a_1
*I *183:B I *D sky130_fd_sc_hd__nor2_1
*I *182:X O *D sky130_fd_sc_hd__and3_1
*CAP
1 *196:A 0.000160706
2 *192:A3 0.000781267
3 *190:A2 0
4 *183:B 0.000325878
5 *182:X 0
6 *35:29 0.000810985
7 *35:12 0.000580392
8 *35:4 0.000385502
9 *183:B *185:B 0.000126804
10 *183:B *210:A 1.33293e-05
11 *192:A3 *189:B 0.000146502
12 *192:A3 *191:B 6.52819e-05
13 *192:A3 *192:C1 4.77757e-05
14 *192:A3 *60:60 2.79099e-05
15 *192:A3 *60:85 0.000298269
16 *196:A *196:B 0.000113044
17 *196:A *207:A 0
18 *196:A *209:A 6.61451e-05
19 *35:12 *178:A 6.95505e-05
20 *35:12 *45:10 0.000180682
21 *35:12 *55:19 2.97004e-06
22 *35:12 *60:85 0
23 *182:C *196:A 1.46e-05
24 *183:A *183:B 1.4688e-05
25 *185:A *183:B 0.000160641
26 *190:B1 *35:29 3.05373e-05
27 *195:A1 *196:A 8.57024e-05
28 *195:A2 *196:A 0.000113237
29 *29:10 *35:12 3.86607e-05
30 *29:10 *35:29 1.1561e-05
31 *30:10 *192:A3 1.33269e-05
32 *31:10 *35:12 0.000125529
33 *31:10 *35:29 2.7881e-05
34 *32:25 *196:A 0.000162311
35 *33:6 *196:A 8.40269e-05
*RES
1 *182:X *35:4 1.6 
2 *35:4 *35:12 7.76 
3 *35:12 *183:B 8.58 
4 *35:12 *35:29 0.87 
5 *35:29 *190:A2 3.6 
6 *35:29 *192:A3 17.07 
7 *35:4 *196:A 6.22 
*END

*D_NET *36 0.000309561
*CONN
*I *185:B I *D sky130_fd_sc_hd__xnor2_1
*I *183:Y O *D sky130_fd_sc_hd__nor2_1
*CAP
1 *185:B 3.3724e-05
2 *183:Y 3.3724e-05
3 *185:B *210:A 1.61831e-05
4 *183:A *185:B 9.91257e-05
5 *183:B *185:B 0.000126804
*RES
1 *183:Y *185:B 5.03 
*END

*D_NET *37 0.000952193
*CONN
*I *192:B1 I *D sky130_fd_sc_hd__a311o_1
*I *184:Y O *D sky130_fd_sc_hd__nor3_1
*CAP
1 *192:B1 0.000355434
2 *184:Y 0.000355434
3 *192:B1 *177:A 4.55864e-06
4 *192:B1 *192:C1 8.7152e-06
5 *192:B1 *38:10 0.000104588
6 *192:B1 *55:54 0.000123464
*RES
1 *184:Y *192:B1 16.9 
*END

*D_NET *38 0.00171746
*CONN
*I *187:B I *D sky130_fd_sc_hd__and2_1
*I *188:B I *D sky130_fd_sc_hd__nor2_1
*I *186:Y O *D sky130_fd_sc_hd__a21boi_1
*CAP
1 *187:B 0.000127777
2 *188:B 3.27506e-05
3 *186:Y 0.000251461
4 *38:10 0.000411989
5 *187:B *189:B 7.21296e-06
6 *187:B *192:C1 2.91894e-05
7 *38:10 *192:C1 4.55864e-06
8 *38:10 *55:54 0
9 *175:B *38:10 0.000197826
10 *187:A *187:B 0.000217399
11 *192:B1 *38:10 0.000104588
12 *27:8 *38:10 0.000271592
13 *30:10 *187:B 8.7152e-06
14 *30:10 *38:10 5.23974e-05
*RES
1 *186:Y *38:10 9.795 
2 *38:10 *188:B 4.05 
3 *38:10 *187:B 6.45 
*END

*D_NET *39 0.000228088
*CONN
*I *189:A I *D sky130_fd_sc_hd__or2_1
*I *187:X O *D sky130_fd_sc_hd__and2_1
*CAP
1 *189:A 0.000111128
2 *187:X 0.000111128
3 *187:A *189:A 5.83121e-06
*RES
1 *187:X *189:A 4.685 
*END

*D_NET *40 0.000868891
*CONN
*I *189:B I *D sky130_fd_sc_hd__or2_1
*I *192:C1 I *D sky130_fd_sc_hd__a311o_1
*I *188:Y O *D sky130_fd_sc_hd__nor2_1
*CAP
1 *189:B 0.000194156
2 *192:C1 8.12655e-05
3 *188:Y 0
4 *40:4 0.000275422
5 *192:C1 *177:A 1.04346e-05
6 *187:A *189:B 6.36578e-05
7 *187:B *189:B 7.21296e-06
8 *187:B *192:C1 2.91894e-05
9 *192:A3 *189:B 0.000146502
10 *192:A3 *192:C1 4.77757e-05
11 *192:B1 *192:C1 8.7152e-06
12 *38:10 *192:C1 4.55864e-06
*RES
1 *188:Y *40:4 1.6 
2 *40:4 *192:C1 6.92 
3 *40:4 *189:B 8.72 
*END

*D_NET *41 0.000661321
*CONN
*I *191:A I *D sky130_fd_sc_hd__xnor2_1
*I *189:X O *D sky130_fd_sc_hd__or2_1
*CAP
1 *191:A 0.00033066
2 *189:X 0.00033066
*RES
1 *189:X *191:A 8.135 
*END

*D_NET *42 0.000528273
*CONN
*I *191:B I *D sky130_fd_sc_hd__xnor2_1
*I *190:X O *D sky130_fd_sc_hd__o21a_1
*CAP
1 *191:B 0.000207978
2 *190:X 0.000207978
3 *191:B *60:85 4.70343e-05
4 *192:A3 *191:B 6.52819e-05
*RES
1 *190:X *191:B 11.07 
*END

*D_NET *43 0.00188661
*CONN
*I *194:B I *D sky130_fd_sc_hd__xnor2_1
*I *193:C I *D sky130_fd_sc_hd__and3_1
*I *192:X O *D sky130_fd_sc_hd__a311o_1
*CAP
1 *194:B 0.000190357
2 *193:C 9.14008e-05
3 *192:X 0.000301958
4 *43:6 0.000583716
5 *193:C *170:B 4.35432e-05
6 *193:C *193:A 4.82863e-05
7 *193:C *56:6 1.51894e-06
8 *194:B *56:18 2.03578e-05
9 *194:B *60:34 2.59981e-05
10 *43:6 *193:A 7.04636e-05
11 *43:6 *60:60 0.000227289
12 *194:A *194:B 0.000281718
*RES
1 *192:X *43:6 5.845 
2 *43:6 *193:C 2.8 
3 *43:6 *194:B 9.74 
*END

*D_NET *44 0.000209983
*CONN
*I *196:B I *D sky130_fd_sc_hd__nor2_1
*I *195:Y O *D sky130_fd_sc_hd__a21oi_1
*CAP
1 *196:B 3.02235e-05
2 *195:Y 3.02235e-05
3 *182:C *196:B 2.27585e-05
4 *195:A1 *196:B 1.37328e-05
5 *196:A *196:B 0.000113044
*RES
1 *195:Y *196:B 4.28375 
*END

*D_NET *45 0.0026043
*CONN
*I *198:A I *D sky130_fd_sc_hd__clkbuf_1
*I *178:C I *D sky130_fd_sc_hd__and3_1
*I *179:C I *D sky130_fd_sc_hd__nand3_1
*I *164:X O *D sky130_fd_sc_hd__and2_1
*CAP
1 *198:A 0.000315467
2 *178:C 1.13009e-05
3 *179:C 0.000319498
4 *164:X 0
5 *45:10 0.000589807
6 *45:4 0.000574475
7 *179:C *178:A 8.65961e-05
8 *179:C *178:B 8.8196e-05
9 *179:C *180:B2 3.25831e-05
10 *179:C *55:31 4.9968e-05
11 *179:C *60:85 2.84137e-05
12 *179:C *60:89 4.92014e-05
13 *45:10 *55:10 0
14 *45:10 *55:19 0
15 P[1] *198:A 0
16 *195:A2 *198:A 0
17 *195:A2 *45:10 0
18 *34:12 *198:A 0.000278117
19 *34:12 *45:10 0
20 *35:12 *45:10 0.000180682
*RES
1 *164:X *45:4 1.6 
2 *45:4 *45:10 8.185 
3 *45:10 *179:C 11.825 
4 *45:10 *178:C 1.765 
5 *45:4 *198:A 11.135 
*END

*D_NET *46 0.00244614
*CONN
*I *164:A I *D sky130_fd_sc_hd__and2_1
*I *180:B2 I *D sky130_fd_sc_hd__a22o_1
*I *166:A I *D sky130_fd_sc_hd__and3_1
*I *167:B2 I *D sky130_fd_sc_hd__a22o_1
*I *199:X O *D sky130_fd_sc_hd__buf_1
*CAP
1 *164:A 5.72809e-05
2 *180:B2 8.7378e-05
3 *166:A 0
4 *167:B2 0.000225432
5 *199:X 0.000113602
6 *46:28 0.000208668
7 *46:21 0.000210565
8 *46:6 0.000485589
9 *164:A *164:B 3.04064e-05
10 *164:A *58:64 6.6564e-05
11 *167:B2 *167:B1 1.75875e-05
12 *167:B2 *58:55 6.4413e-05
13 *180:B2 *180:A1 4.11281e-05
14 *180:B2 *55:10 0
15 *180:B2 *60:89 5.53249e-06
16 *46:21 *214:A 0
17 *46:21 *58:55 5.68523e-06
18 *46:28 *58:64 0.000232732
19 P[0] *167:B2 1.22572e-05
20 *179:C *180:B2 3.25831e-05
21 *34:12 *164:A 0.00015896
22 *34:12 *46:28 0.000389772
*RES
1 *199:X *46:6 3.085 
2 *46:6 *167:B2 5.08 
3 *46:6 *46:21 6.145 
4 *46:21 *166:A 1.6 
5 *46:21 *46:28 3.555 
6 *46:28 *180:B2 7.235 
7 *46:28 *164:A 3.445 
*END

*D_NET *47 0.000228454
*CONN
*I *207:A I *D sky130_fd_sc_hd__buf_2
*I *198:X O *D sky130_fd_sc_hd__clkbuf_1
*CAP
1 *207:A 8.74894e-05
2 *198:X 8.74894e-05
3 *207:A *209:A 5.34747e-05
4 *196:A *207:A 0
*RES
1 *198:X *207:A 4.955 
*END

*D_NET *48 0.000405816
*CONN
*I *208:A I *D sky130_fd_sc_hd__buf_2
*I *169:X O *D sky130_fd_sc_hd__xor2_1
*CAP
1 *208:A 0.000148554
2 *169:X 0.000148554
3 *208:A *167:A2 0
4 *208:A *58:36 7.26551e-05
5 P[2] *208:A 0
6 *169:B *208:A 2.75229e-05
7 *205:A *208:A 8.53113e-06
8 *21:8 *208:A 0
*RES
1 *169:X *208:A 9.63 
*END

*D_NET *49 0.00101329
*CONN
*I *209:A I *D sky130_fd_sc_hd__buf_2
*I *196:Y O *D sky130_fd_sc_hd__nor2_1
*CAP
1 *209:A 0.000416492
2 *196:Y 0.000416492
3 P[3] *209:A 6.06899e-05
4 *196:A *209:A 6.61451e-05
5 *207:A *209:A 5.34747e-05
*RES
1 *196:Y *209:A 13.485 
*END

*D_NET *50 0.00101003
*CONN
*I *210:A I *D sky130_fd_sc_hd__buf_2
*I *185:Y O *D sky130_fd_sc_hd__xnor2_1
*CAP
1 *210:A 0.000459155
2 *185:Y 0.000459155
3 P[4] *210:A 1.22505e-05
4 *183:A *210:A 4.99619e-05
5 *183:B *210:A 1.33293e-05
6 *185:B *210:A 1.61831e-05
*RES
1 *185:Y *210:A 13.74 
*END

*D_NET *51 0.00136872
*CONN
*I *211:A I *D sky130_fd_sc_hd__buf_2
*I *191:Y O *D sky130_fd_sc_hd__xnor2_1
*CAP
1 *211:A 0.000654014
2 *191:Y 0.000654014
3 P[5] *211:A 6.06899e-05
*RES
1 *191:Y *211:A 15.81 
*END

*D_NET *52 0.000619088
*CONN
*I *212:A I *D sky130_fd_sc_hd__buf_2
*I *194:Y O *D sky130_fd_sc_hd__xnor2_1
*CAP
1 *212:A 0.000280622
2 *194:Y 0.000280622
3 P[6] *212:A 5.78448e-05
*RES
1 *194:Y *212:A 11.67 
*END

*D_NET *53 0.000751231
*CONN
*I *213:A I *D sky130_fd_sc_hd__buf_2
*I *193:X O *D sky130_fd_sc_hd__and3_1
*CAP
1 *213:A 0.000254874
2 *193:X 0.000254874
3 *213:A *56:6 0.000241483
*RES
1 *193:X *213:A 11.01 
*END

*D_NET *54 0.00449284
*CONN
*I *166:C I *D sky130_fd_sc_hd__and3_1
*I *167:A2 I *D sky130_fd_sc_hd__a22o_1
*I *171:B I *D sky130_fd_sc_hd__nand4_1
*I *172:A1 I *D sky130_fd_sc_hd__a22o_1
*I *200:X O *D sky130_fd_sc_hd__buf_1
*CAP
1 *166:C 0.000259286
2 *167:A2 0.000137393
3 *171:B 0
4 *172:A1 9.15826e-05
5 *200:X 0.000480942
6 *54:36 0.000657535
7 *54:16 0.000230528
8 *54:10 0.000880743
9 *166:C *58:55 9.26242e-06
10 *167:A2 *173:A 1.08194e-05
11 *167:A2 *214:A 0
12 *167:A2 *58:36 0
13 *167:A2 *59:12 0.000138356
14 *167:A2 *59:18 2.15865e-05
15 *172:A1 *171:D 9.91257e-05
16 *172:A1 *172:A2 0.000163204
17 *172:A1 *58:28 2.49909e-05
18 *54:10 *57:12 2.75229e-05
19 *54:16 *172:A2 0
20 *54:16 *58:28 3.50599e-05
21 *54:16 *58:36 7.44453e-05
22 *54:16 *60:12 8.53113e-06
23 *54:36 *173:A 4.19797e-05
24 *54:36 *55:54 4.9968e-05
25 *54:36 *57:12 5.82176e-05
26 *54:36 *57:23 0.000278111
27 *54:36 *58:36 0
28 P[2] *167:A2 5.16348e-05
29 *169:A *54:10 8.73389e-06
30 *181:A3 *166:C 0.000239944
31 *181:A3 *167:A2 4.9968e-05
32 *208:A *167:A2 0
33 *20:8 *166:C 5.91366e-05
34 *21:8 *167:A2 9.56122e-05
35 *25:10 *172:A1 9.80943e-06
36 *25:10 *54:16 0
37 *26:10 *54:36 8.8266e-05
38 *34:12 *166:C 0.000110545
*RES
1 *200:X *54:10 7.345 
2 *54:10 *54:16 6.4 
3 *54:16 *172:A1 4.135 
4 *54:16 *171:B 1.6 
5 *54:10 *54:36 7.445 
6 *54:36 *167:A2 7.065 
7 *54:36 *166:C 7.845 
*END

*D_NET *55 0.00605183
*CONN
*I *178:A I *D sky130_fd_sc_hd__and3_1
*I *179:A I *D sky130_fd_sc_hd__nand3_1
*I *181:A2 I *D sky130_fd_sc_hd__a32o_1
*I *173:B I *D sky130_fd_sc_hd__and2_1
*I *177:A I *D sky130_fd_sc_hd__nand2_1
*I *192:A1 I *D sky130_fd_sc_hd__a311o_1
*I *165:B I *D sky130_fd_sc_hd__nand2_1
*I *180:A2 I *D sky130_fd_sc_hd__a22o_1
*I *201:X O *D sky130_fd_sc_hd__clkbuf_2
*CAP
1 *178:A 0.000117031
2 *179:A 0
3 *181:A2 7.20355e-05
4 *173:B 0
5 *177:A 0.000277207
6 *192:A1 0
7 *165:B 9.33223e-05
8 *180:A2 0
9 *201:X 0.000279843
10 *55:54 0.000776599
11 *55:39 0.000709189
12 *55:35 0.000482246
13 *55:31 0.000478707
14 *55:19 0.00033125
15 *55:10 0.000309092
16 *165:B *57:23 0.000237238
17 *177:A *60:74 0.000279597
18 *178:A *60:85 5.47609e-05
19 *178:A *60:89 4.5783e-05
20 *181:A2 *181:A1 0.000132456
21 *181:A2 *214:A 3.72413e-05
22 *55:10 *180:A1 0.000159964
23 *55:10 *60:89 5.53249e-06
24 *55:19 *60:89 2.23407e-05
25 *55:31 *179:B 3.00381e-05
26 *55:35 *214:A 4.88478e-05
27 *55:35 *57:23 9.13949e-06
28 *55:39 *57:23 6.56744e-05
29 *55:54 *173:A 4.43871e-06
30 *55:54 *58:36 0
31 *55:54 *60:74 1.79536e-05
32 *175:B *55:54 0.000113797
33 *179:C *178:A 8.65961e-05
34 *179:C *55:31 4.9968e-05
35 *180:B2 *55:10 0
36 *184:C *55:35 6.41164e-05
37 *187:A *177:A 4.00257e-05
38 *192:B1 *177:A 4.55864e-06
39 *192:B1 *55:54 0.000123464
40 *192:C1 *177:A 1.04346e-05
41 *26:10 *55:54 0
42 *26:27 *55:54 1.88904e-05
43 *30:10 *177:A 8.7152e-06
44 *32:25 *55:31 0.000319595
45 *32:25 *55:35 1.16578e-05
46 *35:12 *178:A 6.95505e-05
47 *35:12 *55:19 2.97004e-06
48 *38:10 *55:54 0
49 *45:10 *55:10 0
50 *45:10 *55:19 0
51 *54:36 *55:54 4.9968e-05
*RES
1 *201:X *55:10 8.07 
2 *55:10 *180:A2 3.6 
3 *55:10 *55:19 0.615 
4 *55:19 *55:31 9.585 
5 *55:31 *55:35 5.295 
6 *55:35 *55:39 1.845 
7 *55:39 *165:B 3.775 
8 *55:39 *55:54 11.165 
9 *55:54 *192:A1 3.6 
10 *55:54 *177:A 6.14837 
11 *55:39 *173:B 1.6 
12 *55:35 *181:A2 7.235 
13 *55:31 *179:A 1.6 
14 *55:19 *178:A 6.54 
*END

*D_NET *56 0.00210333
*CONN
*I *193:B I *D sky130_fd_sc_hd__and3_1
*I *170:B I *D sky130_fd_sc_hd__nand2_1
*I *172:B1 I *D sky130_fd_sc_hd__a22o_1
*I *171:D I *D sky130_fd_sc_hd__nand4_1
*I *202:X O *D sky130_fd_sc_hd__buf_1
*CAP
1 *193:B 2.08101e-05
2 *170:B 5.10975e-05
3 *172:B1 0
4 *171:D 7.31544e-05
5 *202:X 0.000151404
6 *56:18 0.000430271
7 *56:8 0.000443765
8 *56:6 0.000207764
9 *170:B *193:A 4.82863e-05
10 *171:D *58:28 9.21168e-05
11 *56:8 *193:A 0
12 *56:18 *172:A2 3.24046e-05
13 *56:18 *58:10 9.24049e-05
14 *56:18 *58:28 5.53249e-06
15 *56:18 *60:12 0
16 *56:18 *60:34 0
17 *172:A1 *171:D 9.91257e-05
18 *193:C *170:B 4.35432e-05
19 *193:C *56:6 1.51894e-06
20 *194:B *56:18 2.03578e-05
21 *213:A *56:6 0.000241483
22 *25:10 *171:D 4.82863e-05
*RES
1 *202:X *56:6 4.81 
2 *56:6 *56:8 0.615 
3 *56:8 *56:18 10.525 
4 *56:18 *171:D 4.15 
5 *56:18 *172:B1 1.6 
6 *56:8 *170:B 2.74 
7 *56:6 *193:B 1.96 
*END

*D_NET *57 0.00210749
*CONN
*I *197:A I *D sky130_fd_sc_hd__clkbuf_1
*I *181:A1 I *D sky130_fd_sc_hd__a32o_1
*I *165:A I *D sky130_fd_sc_hd__nand2_1
*I *203:X O *D sky130_fd_sc_hd__buf_1
*CAP
1 *197:A 0
2 *181:A1 6.77153e-05
3 *165:A 0
4 *203:X 0.000180532
5 *57:23 0.000230695
6 *57:12 0.000343512
7 *181:A1 *173:A 0.000142551
8 *181:A1 *59:12 6.29385e-06
9 *57:12 *58:36 0.000116568
10 *165:B *57:23 0.000237238
11 *169:A *57:12 0.000211262
12 *181:A2 *181:A1 0.000132456
13 *54:10 *57:12 2.75229e-05
14 *54:36 *57:12 5.82176e-05
15 *54:36 *57:23 0.000278111
16 *55:35 *57:23 9.13949e-06
17 *55:39 *57:23 6.56744e-05
*RES
1 *203:X *57:12 10.505 
2 *57:12 *165:A 1.6 
3 *57:12 *57:23 4.62 
4 *57:23 *181:A1 7.49 
5 *57:23 *197:A 1.6 
*END

*D_NET *58 0.00548841
*CONN
*I *172:B2 I *D sky130_fd_sc_hd__a22o_1
*I *171:A I *D sky130_fd_sc_hd__nand4_1
*I *164:B I *D sky130_fd_sc_hd__and2_1
*I *180:A1 I *D sky130_fd_sc_hd__a22o_1
*I *166:B I *D sky130_fd_sc_hd__and3_1
*I *167:A1 I *D sky130_fd_sc_hd__a22o_1
*I *204:X O *D sky130_fd_sc_hd__dlymetal6s2s_1
*CAP
1 *172:B2 0
2 *171:A 0
3 *164:B 7.65057e-05
4 *180:A1 7.64458e-05
5 *166:B 0
6 *167:A1 0
7 *204:X 0.000208628
8 *58:64 0.000423935
9 *58:55 0.000559138
10 *58:36 0.000799614
11 *58:28 0.00086295
12 *58:10 0.000560118
13 *58:36 *59:8 0.000201394
14 *58:55 *167:B1 2.20014e-05
15 *58:55 *214:A 0.00013609
16 *58:55 *59:8 6.69608e-06
17 P[0] *58:55 8.65961e-05
18 P[2] *58:55 0
19 *164:A *164:B 3.04064e-05
20 *164:A *58:64 6.6564e-05
21 *166:C *58:55 9.26242e-06
22 *167:A2 *58:36 0
23 *167:B2 *58:55 6.4413e-05
24 *171:D *58:28 9.21168e-05
25 *172:A1 *58:28 2.49909e-05
26 *180:B2 *180:A1 4.11281e-05
27 *181:A3 *58:36 0
28 *199:A *58:55 0
29 *203:A *58:36 0
30 *205:A *58:36 7.58604e-05
31 *208:A *58:36 7.26551e-05
32 *20:8 *58:64 1.85674e-05
33 *21:8 *58:36 0
34 *24:12 *58:28 3.64998e-06
35 *25:10 *58:28 0.000170617
36 *25:10 *58:36 1.52184e-05
37 *26:10 *58:36 0
38 *34:12 *164:B 3.09179e-05
39 *34:12 *58:55 1.87488e-07
40 *34:12 *58:64 2.93447e-05