*SPEF "ieee 1481-1999"
*DESIGN "SARSA_RUIDO_VENTAJA_e5"
*DATE "09:46:06 Friday September 12, 2025"
*VENDOR "The OpenROAD Project"
*PROGRAM "OpenROAD"
*VERSION "edf00dff99f6c40d67a30c0e22a8191c5d2ed9d6"
*DESIGN_FLOW "NAME_SCOPE LOCAL" "PIN_CAP NONE"
*DIVIDER /
*DELIMITER :
*BUS_DELIMITER []
*T_UNIT 1 NS
*C_UNIT 1 PF
*R_UNIT 1 OHM
*L_UNIT 1 HENRY

*NAME_MAP
*1 A[0]
*2 A[1]
*3 B[0]
*4 B[1]
*5 P[0]
*6 P[1]
*7 P[2]
*8 P[3]
*11 _0_
*12 _1_
*13 net1
*14 net2
*15 net3
*16 net4
*17 net5
*18 net6
*19 net7
*20 net8
*21 FILLER_0_15
*22 FILLER_0_27
*23 FILLER_0_29
*24 FILLER_0_3
*25 FILLER_0_41
*26 FILLER_0_53
*27 FILLER_0_57
*28 FILLER_0_69
*29 FILLER_1_15
*30 FILLER_1_27
*31 FILLER_1_3
*32 FILLER_1_39
*33 FILLER_1_51
*34 FILLER_1_55
*35 FILLER_1_57
*36 FILLER_1_69
*37 FILLER_2_18
*38 FILLER_2_26
*39 FILLER_2_29
*40 FILLER_2_41
*41 FILLER_2_53
*42 FILLER_2_6
*43 FILLER_2_65
*44 FILLER_2_77
*45 FILLER_3_15
*46 FILLER_3_27
*47 FILLER_3_3
*48 FILLER_3_39
*49 FILLER_3_51
*50 FILLER_3_55
*51 FILLER_3_57
*52 FILLER_3_69
*53 FILLER_4_24
*54 FILLER_4_29
*55 FILLER_4_41
*56 FILLER_4_53
*57 FILLER_4_6
*58 FILLER_4_61
*59 FILLER_4_70
*60 FILLER_5_17
*61 FILLER_5_21
*62 FILLER_5_33
*63 FILLER_5_45
*64 FILLER_5_53
*65 FILLER_5_57
*66 FILLER_5_69
*67 FILLER_5_7
*68 FILLER_6_19
*69 FILLER_6_27
*70 FILLER_6_29
*71 FILLER_6_41
*72 FILLER_6_53
*73 FILLER_6_65
*74 FILLER_6_7
*75 FILLER_6_77
*76 FILLER_7_19
*77 FILLER_7_31
*78 FILLER_7_43
*79 FILLER_7_55
*80 FILLER_7_57
*81 FILLER_7_69
*82 FILLER_7_7
*83 FILLER_8_15
*84 FILLER_8_27
*85 FILLER_8_29
*86 FILLER_8_3
*87 FILLER_8_41
*88 FILLER_8_53
*89 FILLER_8_65
*90 FILLER_8_77
*91 FILLER_9_15
*92 FILLER_9_27
*93 FILLER_9_29
*94 FILLER_9_3
*95 FILLER_9_41
*96 FILLER_9_53
*97 FILLER_9_57
*98 FILLER_9_69
*99 PHY_EDGE_ROW_0_Left_10
*100 PHY_EDGE_ROW_0_Right_0
*101 PHY_EDGE_ROW_1_Left_11
*102 PHY_EDGE_ROW_1_Right_1
*103 PHY_EDGE_ROW_2_Left_12
*104 PHY_EDGE_ROW_2_Right_2
*105 PHY_EDGE_ROW_3_Left_13
*106 PHY_EDGE_ROW_3_Right_3
*107 PHY_EDGE_ROW_4_Left_14
*108 PHY_EDGE_ROW_4_Right_4
*109 PHY_EDGE_ROW_5_Left_15
*110 PHY_EDGE_ROW_5_Right_5
*111 PHY_EDGE_ROW_6_Left_16
*112 PHY_EDGE_ROW_6_Right_6
*113 PHY_EDGE_ROW_7_Left_17
*114 PHY_EDGE_ROW_7_Right_7
*115 PHY_EDGE_ROW_8_Left_18
*116 PHY_EDGE_ROW_8_Right_8
*117 PHY_EDGE_ROW_9_Left_19
*118 PHY_EDGE_ROW_9_Right_9
*119 TAP_TAPCELL_ROW_0_20
*120 TAP_TAPCELL_ROW_0_21
*121 TAP_TAPCELL_ROW_1_22
*122 TAP_TAPCELL_ROW_2_23
*123 TAP_TAPCELL_ROW_3_24
*124 TAP_TAPCELL_ROW_4_25
*125 TAP_TAPCELL_ROW_5_26
*126 TAP_TAPCELL_ROW_6_27
*127 TAP_TAPCELL_ROW_7_28
*128 TAP_TAPCELL_ROW_8_29
*129 TAP_TAPCELL_ROW_9_30
*130 TAP_TAPCELL_ROW_9_31
*131 _2_
*132 _3_
*133 _4_
*134 _5_
*135 _6_
*136 _7_
*137 input1
*138 input2
*139 input3
*140 input4
*141 output5
*142 output6
*143 output7
*144 output8

*PORTS
A[0] I
A[1] I
B[0] I
B[1] I
P[0] O
P[1] O
P[2] O
P[3] O

*D_NET *1 0.000572527
*CONN
*P A[0] I
*I *137:A I *D sky130_fd_sc_hd__buf_1
*CAP
1 A[0] 0.000272764
2 *137:A 0.000272764
3 *137:A *139:A 2.69997e-05
*RES
1 A[0] *137:A 7.0893 
*END

*D_NET *2 0.000469751
*CONN
*P A[1] I
*I *138:A I *D sky130_fd_sc_hd__buf_1
*CAP
1 A[1] 0.000186352
2 *138:A 0.000186352
3 *138:A P[1] 8.53361e-05
4 *138:A *14:12 1.17114e-05
*RES
1 A[1] *138:A 5.35677 
*END

*D_NET *3 0.000651011
*CONN
*P B[0] I
*I *139:A I *D sky130_fd_sc_hd__clkbuf_1
*CAP
1 B[0] 0.000297188
2 *139:A 0.000297188
3 *139:A P[2] 2.96366e-05
4 *137:A *139:A 2.69997e-05
*RES
1 B[0] *139:A 7.8543 
*END

*D_NET *4 0.000599388
*CONN
*P B[1] I
*I *140:A I *D sky130_fd_sc_hd__dlymetal6s2s_1
*CAP
1 B[1] 0.000258254
2 *140:A 0.000258254
3 *140:A P[1] 8.28789e-05
*RES
1 B[1] *140:A 6.37677 
*END

*D_NET *5 0.000658473
*CONN
*P P[0] O
*I *141:X O *D sky130_fd_sc_hd__buf_2
*CAP
1 P[0] 0.000313532
2 *141:X 0.000313532
3 P[0] P[3] 3.14094e-05
*RES
1 *141:X P[0] 7.1793 
*END

*D_NET *6 0.000568716
*CONN
*P P[1] O
*I *142:X O *D sky130_fd_sc_hd__buf_2
*CAP
1 P[1] 0.000169007
2 *142:X 0.000169007
3 P[1] *14:12 6.24871e-05
4 *138:A P[1] 8.53361e-05
5 *140:A P[1] 8.28789e-05
*RES
1 *142:X P[1] 5.41503 
*END

*D_NET *7 0.000661148
*CONN
*P P[2] O
*I *143:X O *D sky130_fd_sc_hd__buf_2
*CAP
1 P[2] 0.000301502
2 *143:X 0.000301502
3 P[2] P[3] 2.85068e-05
4 *139:A P[2] 2.96366e-05
*RES
1 *143:X P[2] 7.1793 
*END

*D_NET *8 0.000480895
*CONN
*P P[3] O
*I *144:X O *D sky130_fd_sc_hd__buf_2
*CAP
1 P[3] 0.000205696
2 *144:X 0.000205696
3 P[3] *141:A 9.58678e-06
4 P[0] P[3] 3.14094e-05
5 P[2] P[3] 2.85068e-05
*RES
1 *144:X P[3] 4.90503 
*END

*D_NET *11 0.000714926
*CONN
*I *136:C I *D sky130_fd_sc_hd__and3_1
*I *132:Y O *D sky130_fd_sc_hd__nand2_1
*CAP
1 *136:C 0.000198204
2 *132:Y 0.000198204
3 *136:C *133:A 6.30211e-05
4 *136:C *133:B 0.000118294
5 *136:C *133:C 6.65725e-05
6 *136:C *136:A 0
7 *136:C *15:8 3.00381e-05
8 *136:C *16:19 1.05542e-05
9 *136:C *20:10 3.00381e-05
*RES
1 *132:Y *136:C 7.7 
*END

*D_NET *12 0.000272939
*CONN
*I *134:A1 I *D sky130_fd_sc_hd__a21o_1
*I *131:Y O *D sky130_fd_sc_hd__inv_2
*CAP
1 *134:A1 7.82064e-05
2 *131:Y 7.82064e-05
3 *134:A1 *134:A2 4.99619e-05
4 *134:A1 *143:A 6.6564e-05
*RES
1 *131:Y *134:A1 4.685 
*END

*D_NET *13 0.00184492
*CONN
*I *132:B I *D sky130_fd_sc_hd__nand2_1
*I *133:D I *D sky130_fd_sc_hd__and4_1
*I *134:A2 I *D sky130_fd_sc_hd__a21o_1
*I *137:X O *D sky130_fd_sc_hd__buf_1
*CAP
1 *132:B 4.1847e-05
2 *133:D 0
3 *134:A2 0.000150423
4 *137:X 0.000319173
5 *13:14 0.000280676
6 *13:10 0.000491272
7 *134:A2 *133:C 7.63883e-05
8 *134:A2 *143:A 8.65961e-05
9 *134:A2 *144:A 9.50342e-06
10 *134:A2 *20:10 0.000139245
11 *13:14 *133:B 0.000113237
12 *13:14 *15:8 8.65961e-05
13 *134:A1 *134:A2 4.99619e-05
*RES
1 *137:X *13:10 7.995 
2 *13:10 *13:14 3.83 
3 *13:14 *134:A2 9.305 
4 *13:14 *133:D 1.6 
5 *13:10 *132:B 4.215 
*END

*D_NET *14 0.00507288
*CONN
*I *135:B I *D sky130_fd_sc_hd__xor2_1
*I *136:B I *D sky130_fd_sc_hd__and3_1
*I *133:C I *D sky130_fd_sc_hd__and4_1
*I *138:X O *D sky130_fd_sc_hd__buf_1
*CAP
1 *135:B 0
2 *136:B 0
3 *133:C 0.000202363
4 *138:X 0.000375516
5 *14:18 0.00134705
6 *14:12 0.00152021
7 *133:C *133:A 8.40213e-05
8 *133:C *143:A 0
9 *133:C *16:19 4.82919e-05
10 *14:12 *142:A 0
11 *14:12 *16:6 0.000421345
12 *14:18 *16:6 4.99619e-05
13 *14:18 *16:8 0.000730356
14 *14:18 *16:19 7.66083e-05
15 P[1] *14:12 6.24871e-05
16 *134:A2 *133:C 7.63883e-05
17 *136:C *133:C 6.65725e-05
18 *138:A *14:12 1.17114e-05
*RES
1 *138:X *14:12 13.265 
2 *14:12 *14:18 16.35 
3 *14:18 *133:C 8.645 
4 *14:18 *136:B 1.6 
5 *14:12 *135:B 1.6 
*END

*D_NET *15 0.000793209
*CONN
*I *133:B I *D sky130_fd_sc_hd__and4_1
*I *132:A I *D sky130_fd_sc_hd__nand2_1
*I *139:X O *D sky130_fd_sc_hd__clkbuf_1
*CAP
1 *133:B 5.88886e-05
2 *132:A 1.77753e-05
3 *139:X 0.000145858
4 *15:8 0.000222522
5 *136:C *133:B 0.000118294
6 *136:C *15:8 3.00381e-05
7 *13:14 *133:B 0.000113237
8 *13:14 *15:8 8.65961e-05
*RES
1 *139:X *15:8 4.135 
2 *15:8 *132:A 1.96 
3 *15:8 *133:B 3.43 
*END

*D_NET *16 0.00370632
*CONN
*I *135:A I *D sky130_fd_sc_hd__xor2_1
*I *131:A I *D sky130_fd_sc_hd__inv_2
*I *133:A I *D sky130_fd_sc_hd__and4_1
*I *136:A I *D sky130_fd_sc_hd__and3_1
*I *140:X O *D sky130_fd_sc_hd__dlymetal6s2s_1
*CAP
1 *135:A 0
2 *131:A 9.263e-05
3 *133:A 2.05022e-05
4 *136:A 2.08101e-05
5 *140:X 0.000170265
6 *16:19 0.00017828
7 *16:8 0.000758898
8 *16:6 0.000843205
9 *131:A *143:A 0.000137571
10 *133:C *133:A 8.40213e-05
11 *133:C *16:19 4.82919e-05
12 *136:C *133:A 6.30211e-05
13 *136:C *136:A 0
14 *136:C *16:19 1.05542e-05
15 *14:12 *16:6 0.000421345
16 *14:18 *16:6 4.99619e-05
17 *14:18 *16:8 0.000730356
18 *14:18 *16:19 7.66083e-05
*RES
1 *140:X *16:6 5.845 
2 *16:6 *16:8 14.595 
3 *16:8 *136:A 1.96 
4 *16:8 *16:19 1.755 
5 *16:19 *133:A 2.395 
6 *16:19 *131:A 7.49 
7 *16:6 *135:A 1.6 
*END

*D_NET *17 0.000822738
*CONN
*I *141:A I *D sky130_fd_sc_hd__buf_2
*I *134:X O *D sky130_fd_sc_hd__a21o_1
*CAP
1 *141:A 0.000363655
2 *134:X 0.000363655
3 *141:A *143:A 8.5841e-05
4 *141:A *144:A 0
5 P[3] *141:A 9.58678e-06
*RES
1 *134:X *141:A 12.705 
*END

*D_NET *18 0.00059275
*CONN
*I *142:A I *D sky130_fd_sc_hd__buf_2
*I *135:X O *D sky130_fd_sc_hd__xor2_1
*CAP
1 *142:A 0.000296375
2 *135:X 0.000296375
3 *14:12 *142:A 0
*RES
1 *135:X *142:A 11.7 
*END

*D_NET *19 0.00123062
*CONN
*I *143:A I *D sky130_fd_sc_hd__buf_2
*I *136:X O *D sky130_fd_sc_hd__and3_1
*CAP
1 *143:A 0.000427024
2 *136:X 0.000427024
3 *131:A *143:A 0.000137571
4 *133:C *143:A 0
5 *134:A1 *143:A 6.6564e-05
6 *134:A2 *143:A 8.65961e-05
7 *141:A *143:A 8.5841e-05
*RES
1 *136:X *143:A 14.805 
*END

*D_NET *20 0.000971907
*CONN
*I *144:A I *D sky130_fd_sc_hd__buf_2
*I *134:B1 I *D sky130_fd_sc_hd__a21o_1
*I *133:X O *D sky130_fd_sc_hd__and4_1
*CAP
1 *144:A 0.000290859
2 *134:B1 0
3 *133:X 0.000105701
4 *20:10 0.00039656
5 *134:A2 *144:A 9.50342e-06
6 *134:A2 *20:10 0.000139245
7 *136:C *20:10 3.00381e-05
8 *141:A *144:A 0
*RES
1 *133:X *20:10 5.685 
2 *20:10 *134:B1 3.6 
3 *20:10 *144:A 8.01 
*END
