*SPEF "ieee 1481-1999"
*DESIGN "mult8_2bits_1op_e16966"
*DATE "19:08:46 Tuesday September 16, 2025"
*VENDOR "The OpenROAD Project"
*PROGRAM "OpenROAD"
*VERSION "edf00dff99f6c40d67a30c0e22a8191c5d2ed9d6"
*DESIGN_FLOW "NAME_SCOPE LOCAL" "PIN_CAP NONE"
*DIVIDER /
*DELIMITER :
*BUS_DELIMITER []
*T_UNIT 1 NS
*C_UNIT 1 PF
*R_UNIT 1 OHM
*L_UNIT 1 HENRY

*NAME_MAP
*1 A[0]
*2 A[1]
*3 A[2]
*4 A[3]
*5 A[4]
*6 A[5]
*7 A[6]
*8 A[7]
*9 B[0]
*10 B[1]
*11 B[2]
*12 B[3]
*13 B[4]
*14 B[5]
*15 B[6]
*16 B[7]
*17 P[0]
*18 P[10]
*19 P[11]
*20 P[12]
*21 P[13]
*22 P[14]
*23 P[15]
*24 P[1]
*25 P[2]
*26 P[3]
*27 P[4]
*28 P[5]
*29 P[6]
*30 P[7]
*31 P[8]
*32 P[9]
*35 _000_
*36 _001_
*37 _002_
*38 _003_
*39 _004_
*40 _005_
*41 _006_
*42 _007_
*43 _008_
*44 _009_
*45 _010_
*46 _011_
*47 _012_
*48 _013_
*49 _014_
*50 _015_
*51 _016_
*52 _017_
*53 _018_
*54 _019_
*55 _020_
*56 _021_
*57 _022_
*58 _023_
*59 _024_
*60 _025_
*61 _026_
*62 _027_
*63 _028_
*64 _029_
*65 _030_
*66 _031_
*67 _032_
*68 _033_
*69 _034_
*70 _035_
*71 _036_
*72 _037_
*73 _038_
*74 _039_
*75 _040_
*76 _041_
*77 _042_
*78 _043_
*79 _044_
*80 _045_
*81 _046_
*82 _047_
*83 _048_
*84 _049_
*85 _050_
*86 _051_
*87 _052_
*88 _053_
*89 _054_
*90 _055_
*91 _056_
*92 _057_
*93 _058_
*94 _059_
*95 _060_
*96 _061_
*97 _062_
*98 _063_
*99 _064_
*100 _065_
*101 _066_
*102 _067_
*103 _068_
*104 _069_
*105 _070_
*106 _071_
*107 _072_
*108 _073_
*109 _074_
*110 _075_
*111 _076_
*112 _077_
*113 _078_
*114 _079_
*115 _080_
*116 _081_
*117 _082_
*118 _083_
*119 _084_
*120 _085_
*121 _086_
*122 _087_
*123 _088_
*124 _089_
*125 _090_
*126 _091_
*127 _092_
*128 _093_
*129 _094_
*130 _095_
*131 _096_
*132 _097_
*133 _098_
*134 _099_
*135 _100_
*136 _101_
*137 _102_
*138 _103_
*139 _104_
*140 _105_
*141 _106_
*142 _107_
*143 _108_
*144 _109_
*145 _110_
*146 _111_
*147 _112_
*148 _113_
*149 _114_
*150 _115_
*151 _116_
*152 _117_
*153 _118_
*154 _119_
*155 _120_
*156 _121_
*157 _122_
*158 _123_
*159 _124_
*160 _125_
*161 _126_
*162 _127_
*163 _128_
*164 _129_
*165 _130_
*166 _131_
*167 _132_
*168 _133_
*169 _134_
*170 _135_
*171 _136_
*172 _137_
*173 _138_
*174 _139_
*175 _140_
*176 _141_
*177 _142_
*178 _143_
*179 _144_
*180 _145_
*181 _146_
*182 _147_
*183 _148_
*184 _149_
*185 _150_
*186 _151_
*187 _152_
*188 _153_
*189 _154_
*190 _155_
*191 _156_
*192 _157_
*193 _158_
*194 _159_
*195 _160_
*196 _161_
*197 _162_
*198 _163_
*199 _164_
*200 _165_
*201 _166_
*202 _167_
*203 _168_
*204 _169_
*205 _170_
*206 _171_
*207 _172_
*208 _173_
*209 _174_
*210 _175_
*211 _176_
*212 _177_
*213 _178_
*214 _179_
*215 _180_
*216 _181_
*217 _182_
*218 _183_
*219 _184_
*220 _185_
*221 _186_
*222 _187_
*223 _188_
*224 _189_
*225 _190_
*226 _191_
*227 _192_
*228 _193_
*229 _194_
*230 _195_
*231 _196_
*232 _197_
*233 _198_
*234 _199_
*235 _200_
*236 _201_
*237 _202_
*238 _203_
*239 _204_
*240 _205_
*241 _206_
*242 _207_
*243 _208_
*244 _209_
*245 _210_
*246 _211_
*247 _212_
*248 _213_
*249 _214_
*250 _215_
*251 _216_
*252 _217_
*253 _218_
*254 _219_
*255 _220_
*256 _221_
*257 _222_
*258 _223_
*259 _224_
*260 _225_
*261 _226_
*262 _227_
*263 _228_
*264 _229_
*265 _230_
*266 _231_
*267 _232_
*268 _233_
*269 _234_
*270 _235_
*271 _236_
*272 _237_
*273 _238_
*274 _239_
*275 _240_
*276 _241_
*277 _242_
*278 _243_
*279 _244_
*280 _245_
*281 _246_
*282 _247_
*283 _248_
*284 _249_
*285 _250_
*286 _251_
*287 _252_
*288 _253_
*289 _254_
*290 _255_
*291 _256_
*292 _257_
*293 _258_
*294 _259_
*295 _260_
*296 _261_
*297 _262_
*298 _263_
*299 _264_
*300 _265_
*301 _266_
*302 _267_
*303 _268_
*304 _269_
*305 _270_
*306 _271_
*307 _272_
*308 _273_
*309 _274_
*310 net1
*311 net10
*312 net11
*313 net12
*314 net13
*315 net14
*316 net15
*317 net16
*318 net17
*319 net18
*320 net19
*321 net2
*322 net20
*323 net21
*324 net22
*325 net23
*326 net24
*327 net25
*328 net26
*329 net27
*330 net28
*331 net29
*332 net3
*333 net30
*334 net31
*335 net32
*336 net33
*337 net34
*338 net35
*339 net36
*340 net37
*341 net38
*342 net39
*343 net4
*344 net40
*345 net41
*346 net42
*347 net43
*348 net44
*349 net45
*350 net46
*351 net47
*352 net48
*353 net49
*354 net5
*355 net50
*356 net51
*357 net52
*358 net53
*359 net54
*360 net55
*361 net56
*362 net57
*363 net58
*364 net59
*365 net6
*366 net60
*367 net61
*368 net62
*369 net63
*370 net64
*371 net65
*372 net66
*373 net67
*374 net68
*375 net69
*376 net7
*377 net70
*378 net71
*379 net72
*380 net73
*381 net74
*382 net75
*383 net76
*384 net77
*385 net78
*386 net79
*387 net8
*388 net80
*389 net81
*390 net82
*391 net83
*392 net84
*393 net85
*394 net86
*395 net87
*396 net88
*397 net9
*398 FILLER_0_109
*399 FILLER_0_113
*400 FILLER_0_125
*401 FILLER_0_137
*402 FILLER_0_141
*403 FILLER_0_15
*404 FILLER_0_153
*405 FILLER_0_161
*406 FILLER_0_169
*407 FILLER_0_175
*408 FILLER_0_181
*409 FILLER_0_189
*410 FILLER_0_197
*411 FILLER_0_205
*412 FILLER_0_215
*413 FILLER_0_223
*414 FILLER_0_225
*415 FILLER_0_237
*416 FILLER_0_249
*417 FILLER_0_259
*418 FILLER_0_27
*419 FILLER_0_271
*420 FILLER_0_279
*421 FILLER_0_281
*422 FILLER_0_29
*423 FILLER_0_293
*424 FILLER_0_3
*425 FILLER_0_305
*426 FILLER_0_309
*427 FILLER_0_321
*428 FILLER_0_333
*429 FILLER_0_337
*430 FILLER_0_349
*431 FILLER_0_361
*432 FILLER_0_365
*433 FILLER_0_377
*434 FILLER_0_389
*435 FILLER_0_393
*436 FILLER_0_405
*437 FILLER_0_41
*438 FILLER_0_53
*439 FILLER_0_57
*440 FILLER_0_69
*441 FILLER_0_81
*442 FILLER_0_85
*443 FILLER_0_97
*444 FILLER_10_109
*445 FILLER_10_121
*446 FILLER_10_133
*447 FILLER_10_139
*448 FILLER_10_141
*449 FILLER_10_15
*450 FILLER_10_153
*451 FILLER_10_165
*452 FILLER_10_177
*453 FILLER_10_189
*454 FILLER_10_195
*455 FILLER_10_197
*456 FILLER_10_209
*457 FILLER_10_221
*458 FILLER_10_233
*459 FILLER_10_245
*460 FILLER_10_251
*461 FILLER_10_253
*462 FILLER_10_265
*463 FILLER_10_27
*464 FILLER_10_277
*465 FILLER_10_289
*466 FILLER_10_29
*467 FILLER_10_3
*468 FILLER_10_301
*469 FILLER_10_307
*470 FILLER_10_309
*471 FILLER_10_321
*472 FILLER_10_333
*473 FILLER_10_345
*474 FILLER_10_357
*475 FILLER_10_363
*476 FILLER_10_365
*477 FILLER_10_377
*478 FILLER_10_389
*479 FILLER_10_401
*480 FILLER_10_41
*481 FILLER_10_53
*482 FILLER_10_65
*483 FILLER_10_77
*484 FILLER_10_83
*485 FILLER_10_85
*486 FILLER_10_97
*487 FILLER_11_105
*488 FILLER_11_111
*489 FILLER_11_113
*490 FILLER_11_125
*491 FILLER_11_137
*492 FILLER_11_149
*493 FILLER_11_15
*494 FILLER_11_161
*495 FILLER_11_167
*496 FILLER_11_169
*497 FILLER_11_181
*498 FILLER_11_193
*499 FILLER_11_205
*500 FILLER_11_217
*501 FILLER_11_223
*502 FILLER_11_225
*503 FILLER_11_237
*504 FILLER_11_249
*505 FILLER_11_261
*506 FILLER_11_27
*507 FILLER_11_273
*508 FILLER_11_279
*509 FILLER_11_281
*510 FILLER_11_293
*511 FILLER_11_3
*512 FILLER_11_305
*513 FILLER_11_317
*514 FILLER_11_329
*515 FILLER_11_335
*516 FILLER_11_337
*517 FILLER_11_349
*518 FILLER_11_361
*519 FILLER_11_373
*520 FILLER_11_385
*521 FILLER_11_39
*522 FILLER_11_391
*523 FILLER_11_393
*524 FILLER_11_405
*525 FILLER_11_51
*526 FILLER_11_55
*527 FILLER_11_57
*528 FILLER_11_69
*529 FILLER_11_81
*530 FILLER_11_93
*531 FILLER_12_109
*532 FILLER_12_121
*533 FILLER_12_133
*534 FILLER_12_139
*535 FILLER_12_141
*536 FILLER_12_15
*537 FILLER_12_153
*538 FILLER_12_165
*539 FILLER_12_177
*540 FILLER_12_189
*541 FILLER_12_195
*542 FILLER_12_197
*543 FILLER_12_209
*544 FILLER_12_221
*545 FILLER_12_233
*546 FILLER_12_245
*547 FILLER_12_251
*548 FILLER_12_253
*549 FILLER_12_265
*550 FILLER_12_27
*551 FILLER_12_277
*552 FILLER_12_289
*553 FILLER_12_29
*554 FILLER_12_3
*555 FILLER_12_301
*556 FILLER_12_307
*557 FILLER_12_309
*558 FILLER_12_321
*559 FILLER_12_333
*560 FILLER_12_345
*561 FILLER_12_357
*562 FILLER_12_363
*563 FILLER_12_365
*564 FILLER_12_377
*565 FILLER_12_389
*566 FILLER_12_401
*567 FILLER_12_41
*568 FILLER_12_53
*569 FILLER_12_65
*570 FILLER_12_77
*571 FILLER_12_83
*572 FILLER_12_85
*573 FILLER_12_97
*574 FILLER_13_105
*575 FILLER_13_111
*576 FILLER_13_113
*577 FILLER_13_125
*578 FILLER_13_137
*579 FILLER_13_149
*580 FILLER_13_15
*581 FILLER_13_163
*582 FILLER_13_167
*583 FILLER_13_169
*584 FILLER_13_181
*585 FILLER_13_193
*586 FILLER_13_207
*587 FILLER_13_219
*588 FILLER_13_223
*589 FILLER_13_225
*590 FILLER_13_237
*591 FILLER_13_249
*592 FILLER_13_261
*593 FILLER_13_27
*594 FILLER_13_273
*595 FILLER_13_279
*596 FILLER_13_281
*597 FILLER_13_293
*598 FILLER_13_3
*599 FILLER_13_305
*600 FILLER_13_317
*601 FILLER_13_329
*602 FILLER_13_335
*603 FILLER_13_337
*604 FILLER_13_349
*605 FILLER_13_361
*606 FILLER_13_373
*607 FILLER_13_385
*608 FILLER_13_39
*609 FILLER_13_391
*610 FILLER_13_393
*611 FILLER_13_405
*612 FILLER_13_51
*613 FILLER_13_55
*614 FILLER_13_57
*615 FILLER_13_69
*616 FILLER_13_81
*617 FILLER_13_93
*618 FILLER_14_109
*619 FILLER_14_121
*620 FILLER_14_133
*621 FILLER_14_139
*622 FILLER_14_141
*623 FILLER_14_15
*624 FILLER_14_153
*625 FILLER_14_165
*626 FILLER_14_177
*627 FILLER_14_189
*628 FILLER_14_195
*629 FILLER_14_197
*630 FILLER_14_209
*631 FILLER_14_221
*632 FILLER_14_233
*633 FILLER_14_245
*634 FILLER_14_251
*635 FILLER_14_253
*636 FILLER_14_265
*637 FILLER_14_27
*638 FILLER_14_277
*639 FILLER_14_289
*640 FILLER_14_29
*641 FILLER_14_3
*642 FILLER_14_301
*643 FILLER_14_307
*644 FILLER_14_309
*645 FILLER_14_321
*646 FILLER_14_333
*647 FILLER_14_345
*648 FILLER_14_357
*649 FILLER_14_363
*650 FILLER_14_365
*651 FILLER_14_377
*652 FILLER_14_389
*653 FILLER_14_401
*654 FILLER_14_41
*655 FILLER_14_53
*656 FILLER_14_65
*657 FILLER_14_77
*658 FILLER_14_83
*659 FILLER_14_85
*660 FILLER_14_97
*661 FILLER_15_105
*662 FILLER_15_111
*663 FILLER_15_113
*664 FILLER_15_125
*665 FILLER_15_137
*666 FILLER_15_148
*667 FILLER_15_15
*668 FILLER_15_152
*669 FILLER_15_160
*670 FILLER_15_169
*671 FILLER_15_181
*672 FILLER_15_193
*673 FILLER_15_202
*674 FILLER_15_214
*675 FILLER_15_222
*676 FILLER_15_225
*677 FILLER_15_237
*678 FILLER_15_249
*679 FILLER_15_261
*680 FILLER_15_27
*681 FILLER_15_273
*682 FILLER_15_279
*683 FILLER_15_281
*684 FILLER_15_293
*685 FILLER_15_3
*686 FILLER_15_305
*687 FILLER_15_317
*688 FILLER_15_329
*689 FILLER_15_335
*690 FILLER_15_337
*691 FILLER_15_349
*692 FILLER_15_361
*693 FILLER_15_373
*694 FILLER_15_385
*695 FILLER_15_39
*696 FILLER_15_391
*697 FILLER_15_393
*698 FILLER_15_405
*699 FILLER_15_51
*700 FILLER_15_55
*701 FILLER_15_57
*702 FILLER_15_69
*703 FILLER_15_81
*704 FILLER_15_93
*705 FILLER_16_109
*706 FILLER_16_121
*707 FILLER_16_133
*708 FILLER_16_139
*709 FILLER_16_141
*710 FILLER_16_15
*711 FILLER_16_163
*712 FILLER_16_175
*713 FILLER_16_187
*714 FILLER_16_195
*715 FILLER_16_214
*716 FILLER_16_226
*717 FILLER_16_234
*718 FILLER_16_243
*719 FILLER_16_251
*720 FILLER_16_253
*721 FILLER_16_265
*722 FILLER_16_27
*723 FILLER_16_277
*724 FILLER_16_289
*725 FILLER_16_29
*726 FILLER_16_3
*727 FILLER_16_301
*728 FILLER_16_307
*729 FILLER_16_309
*730 FILLER_16_321
*731 FILLER_16_333
*732 FILLER_16_345
*733 FILLER_16_357
*734 FILLER_16_363
*735 FILLER_16_365
*736 FILLER_16_377
*737 FILLER_16_389
*738 FILLER_16_401
*739 FILLER_16_41
*740 FILLER_16_53
*741 FILLER_16_65
*742 FILLER_16_77
*743 FILLER_16_83
*744 FILLER_16_85
*745 FILLER_16_97
*746 FILLER_17_103
*747 FILLER_17_111
*748 FILLER_17_113
*749 FILLER_17_125
*750 FILLER_17_133
*751 FILLER_17_144
*752 FILLER_17_15
*753 FILLER_17_156
*754 FILLER_17_169
*755 FILLER_17_181
*756 FILLER_17_193
*757 FILLER_17_205
*758 FILLER_17_217
*759 FILLER_17_223
*760 FILLER_17_225
*761 FILLER_17_233
*762 FILLER_17_248
*763 FILLER_17_260
*764 FILLER_17_27
*765 FILLER_17_272
*766 FILLER_17_281
*767 FILLER_17_293
*768 FILLER_17_3
*769 FILLER_17_305
*770 FILLER_17_317
*771 FILLER_17_329
*772 FILLER_17_335
*773 FILLER_17_337
*774 FILLER_17_349
*775 FILLER_17_361
*776 FILLER_17_373
*777 FILLER_17_385
*778 FILLER_17_39
*779 FILLER_17_391
*780 FILLER_17_393
*781 FILLER_17_405
*782 FILLER_17_51
*783 FILLER_17_55
*784 FILLER_17_57
*785 FILLER_17_69
*786 FILLER_17_81
*787 FILLER_17_93
*788 FILLER_18_104
*789 FILLER_18_116
*790 FILLER_18_128
*791 FILLER_18_141
*792 FILLER_18_15
*793 FILLER_18_153
*794 FILLER_18_165
*795 FILLER_18_177
*796 FILLER_18_189
*797 FILLER_18_206
*798 FILLER_18_218
*799 FILLER_18_253
*800 FILLER_18_265
*801 FILLER_18_27
*802 FILLER_18_277
*803 FILLER_18_289
*804 FILLER_18_29
*805 FILLER_18_3
*806 FILLER_18_301
*807 FILLER_18_307
*808 FILLER_18_309
*809 FILLER_18_321
*810 FILLER_18_333
*811 FILLER_18_345
*812 FILLER_18_357
*813 FILLER_18_363
*814 FILLER_18_365
*815 FILLER_18_377
*816 FILLER_18_389
*817 FILLER_18_401
*818 FILLER_18_53
*819 FILLER_18_65
*820 FILLER_18_77
*821 FILLER_18_83
*822 FILLER_18_92
*823 FILLER_19_105
*824 FILLER_19_111
*825 FILLER_19_113
*826 FILLER_19_119
*827 FILLER_19_124
*828 FILLER_19_136
*829 FILLER_19_148
*830 FILLER_19_15
*831 FILLER_19_165
*832 FILLER_19_169
*833 FILLER_19_181
*834 FILLER_19_193
*835 FILLER_19_205
*836 FILLER_19_217
*837 FILLER_19_223
*838 FILLER_19_225
*839 FILLER_19_23
*840 FILLER_19_233
*841 FILLER_19_240
*842 FILLER_19_252
*843 FILLER_19_264
*844 FILLER_19_276
*845 FILLER_19_281
*846 FILLER_19_293
*847 FILLER_19_3
*848 FILLER_19_305
*849 FILLER_19_317
*850 FILLER_19_329
*851 FILLER_19_335
*852 FILLER_19_337
*853 FILLER_19_349
*854 FILLER_19_361
*855 FILLER_19_373
*856 FILLER_19_38
*857 FILLER_19_385
*858 FILLER_19_391
*859 FILLER_19_393
*860 FILLER_19_405
*861 FILLER_19_49
*862 FILLER_19_55
*863 FILLER_19_65
*864 FILLER_19_77
*865 FILLER_19_94
*866 FILLER_1_105
*867 FILLER_1_111
*868 FILLER_1_113
*869 FILLER_1_125
*870 FILLER_1_137
*871 FILLER_1_149
*872 FILLER_1_15
*873 FILLER_1_161
*874 FILLER_1_167
*875 FILLER_1_169
*876 FILLER_1_181
*877 FILLER_1_193
*878 FILLER_1_205
*879 FILLER_1_217
*880 FILLER_1_223
*881 FILLER_1_225
*882 FILLER_1_237
*883 FILLER_1_249
*884 FILLER_1_261
*885 FILLER_1_27
*886 FILLER_1_273
*887 FILLER_1_279
*888 FILLER_1_281
*889 FILLER_1_293
*890 FILLER_1_3
*891 FILLER_1_305
*892 FILLER_1_317
*893 FILLER_1_329
*894 FILLER_1_335
*895 FILLER_1_337
*896 FILLER_1_349
*897 FILLER_1_361
*898 FILLER_1_373
*899 FILLER_1_385
*900 FILLER_1_39
*901 FILLER_1_391
*902 FILLER_1_393
*903 FILLER_1_405
*904 FILLER_1_51
*905 FILLER_1_55
*906 FILLER_1_57
*907 FILLER_1_69
*908 FILLER_1_81
*909 FILLER_1_93
*910 FILLER_20_100
*911 FILLER_20_112
*912 FILLER_20_120
*913 FILLER_20_128
*914 FILLER_20_141
*915 FILLER_20_15
*916 FILLER_20_153
*917 FILLER_20_161
*918 FILLER_20_170
*919 FILLER_20_182
*920 FILLER_20_194
*921 FILLER_20_197
*922 FILLER_20_209
*923 FILLER_20_221
*924 FILLER_20_233
*925 FILLER_20_245
*926 FILLER_20_251
*927 FILLER_20_253
*928 FILLER_20_26
*929 FILLER_20_265
*930 FILLER_20_277
*931 FILLER_20_289
*932 FILLER_20_29
*933 FILLER_20_3
*934 FILLER_20_301
*935 FILLER_20_307
*936 FILLER_20_309
*937 FILLER_20_321
*938 FILLER_20_333
*939 FILLER_20_345
*940 FILLER_20_357
*941 FILLER_20_363
*942 FILLER_20_365
*943 FILLER_20_377
*944 FILLER_20_389
*945 FILLER_20_401
*946 FILLER_20_48
*947 FILLER_20_60
*948 FILLER_20_66
*949 FILLER_20_72
*950 FILLER_20_85
*951 FILLER_21_101
*952 FILLER_21_109
*953 FILLER_21_113
*954 FILLER_21_125
*955 FILLER_21_137
*956 FILLER_21_149
*957 FILLER_21_161
*958 FILLER_21_167
*959 FILLER_21_172
*960 FILLER_21_184
*961 FILLER_21_20
*962 FILLER_21_202
*963 FILLER_21_214
*964 FILLER_21_222
*965 FILLER_21_225
*966 FILLER_21_233
*967 FILLER_21_243
*968 FILLER_21_255
*969 FILLER_21_267
*970 FILLER_21_279
*971 FILLER_21_281
*972 FILLER_21_293
*973 FILLER_21_3
*974 FILLER_21_305
*975 FILLER_21_317
*976 FILLER_21_32
*977 FILLER_21_329
*978 FILLER_21_335
*979 FILLER_21_337
*980 FILLER_21_349
*981 FILLER_21_361
*982 FILLER_21_373
*983 FILLER_21_385
*984 FILLER_21_391
*985 FILLER_21_393
*986 FILLER_21_405
*987 FILLER_21_44
*988 FILLER_21_53
*989 FILLER_21_77
*990 FILLER_21_89
*991 FILLER_22_109
*992 FILLER_22_121
*993 FILLER_22_133
*994 FILLER_22_139
*995 FILLER_22_141
*996 FILLER_22_153
*997 FILLER_22_187
*998 FILLER_22_19
*999 FILLER_22_200
*1000 FILLER_22_212
*1001 FILLER_22_224
*1002 FILLER_22_234
*1003 FILLER_22_246
*1004 FILLER_22_253
*1005 FILLER_22_265
*1006 FILLER_22_27
*1007 FILLER_22_277
*1008 FILLER_22_289
*1009 FILLER_22_29
*1010 FILLER_22_301
*1011 FILLER_22_307
*1012 FILLER_22_309
*1013 FILLER_22_321
*1014 FILLER_22_333
*1015 FILLER_22_345
*1016 FILLER_22_357
*1017 FILLER_22_363
*1018 FILLER_22_365
*1019 FILLER_22_377
*1020 FILLER_22_389
*1021 FILLER_22_397
*1022 FILLER_22_41
*1023 FILLER_22_53
*1024 FILLER_22_65
*1025 FILLER_22_7
*1026 FILLER_22_77
*1027 FILLER_22_83
*1028 FILLER_22_85
*1029 FILLER_22_97
*1030 FILLER_23_105
*1031 FILLER_23_111
*1032 FILLER_23_133
*1033 FILLER_23_145
*1034 FILLER_23_15
*1035 FILLER_23_155
*1036 FILLER_23_167
*1037 FILLER_23_169
*1038 FILLER_23_181
*1039 FILLER_23_193
*1040 FILLER_23_205
*1041 FILLER_23_217
*1042 FILLER_23_223
*1043 FILLER_23_225
*1044 FILLER_23_231
*1045 FILLER_23_237
*1046 FILLER_23_245
*1047 FILLER_23_257
*1048 FILLER_23_269
*1049 FILLER_23_27
*1050 FILLER_23_277
*1051 FILLER_23_281
*1052 FILLER_23_293
*1053 FILLER_23_3
*1054 FILLER_23_305
*1055 FILLER_23_317
*1056 FILLER_23_337
*1057 FILLER_23_349
*1058 FILLER_23_361
*1059 FILLER_23_373
*1060 FILLER_23_385
*1061 FILLER_23_39
*1062 FILLER_23_391
*1063 FILLER_23_393
*1064 FILLER_23_405
*1065 FILLER_23_51
*1066 FILLER_23_55
*1067 FILLER_23_57
*1068 FILLER_23_69
*1069 FILLER_23_81
*1070 FILLER_23_93
*1071 FILLER_24_106
*1072 FILLER_24_133
*1073 FILLER_24_139
*1074 FILLER_24_141
*1075 FILLER_24_153
*1076 FILLER_24_162
*1077 FILLER_24_174
*1078 FILLER_24_186
*1079 FILLER_24_19
*1080 FILLER_24_194
*1081 FILLER_24_197
*1082 FILLER_24_209
*1083 FILLER_24_221
*1084 FILLER_24_233
*1085 FILLER_24_246
*1086 FILLER_24_253
*1087 FILLER_24_265
*1088 FILLER_24_27
*1089 FILLER_24_277
*1090 FILLER_24_289
*1091 FILLER_24_301
*1092 FILLER_24_307
*1093 FILLER_24_309
*1094 FILLER_24_321
*1095 FILLER_24_326
*1096 FILLER_24_338
*1097 FILLER_24_350
*1098 FILLER_24_362
*1099 FILLER_24_365
*1100 FILLER_24_37
*1101 FILLER_24_377
*1102 FILLER_24_389
*1103 FILLER_24_401
*1104 FILLER_24_49
*1105 FILLER_24_61
*1106 FILLER_24_7
*1107 FILLER_24_73
*1108 FILLER_24_81
*1109 FILLER_24_85
*1110 FILLER_24_98
*1111 FILLER_25_104
*1112 FILLER_25_113
*1113 FILLER_25_136
*1114 FILLER_25_148
*1115 FILLER_25_165
*1116 FILLER_25_185
*1117 FILLER_25_197
*1118 FILLER_25_209
*1119 FILLER_25_221
*1120 FILLER_25_225
*1121 FILLER_25_241
*1122 FILLER_25_253
*1123 FILLER_25_265
*1124 FILLER_25_277
*1125 FILLER_25_281
*1126 FILLER_25_293
*1127 FILLER_25_30
*1128 FILLER_25_305
*1129 FILLER_25_319
*1130 FILLER_25_333
*1131 FILLER_25_337
*1132 FILLER_25_349
*1133 FILLER_25_361
*1134 FILLER_25_373
*1135 FILLER_25_385
*1136 FILLER_25_391
*1137 FILLER_25_393
*1138 FILLER_25_397
*1139 FILLER_25_45
*1140 FILLER_25_66
*1141 FILLER_25_78
*1142 FILLER_25_9
*1143 FILLER_26_13
*1144 FILLER_26_134
*1145 FILLER_26_141
*1146 FILLER_26_153
*1147 FILLER_26_193
*1148 FILLER_26_201
*1149 FILLER_26_213
*1150 FILLER_26_220
*1151 FILLER_26_232
*1152 FILLER_26_244
*1153 FILLER_26_253
*1154 FILLER_26_265
*1155 FILLER_26_277
*1156 FILLER_26_289
*1157 FILLER_26_301
*1158 FILLER_26_307
*1159 FILLER_26_309
*1160 FILLER_26_321
*1161 FILLER_26_331
*1162 FILLER_26_343
*1163 FILLER_26_355
*1164 FILLER_26_363
*1165 FILLER_26_365
*1166 FILLER_26_377
*1167 FILLER_26_389
*1168 FILLER_26_401
*1169 FILLER_26_46
*1170 FILLER_26_58
*1171 FILLER_26_7
*1172 FILLER_26_70
*1173 FILLER_26_75
*1174 FILLER_26_83
*1175 FILLER_26_85
*1176 FILLER_26_95
*1177 FILLER_27_105
*1178 FILLER_27_111
*1179 FILLER_27_113
*1180 FILLER_27_127
*1181 FILLER_27_139
*1182 FILLER_27_15
*1183 FILLER_27_151
*1184 FILLER_27_163
*1185 FILLER_27_167
*1186 FILLER_27_173
*1187 FILLER_27_182
*1188 FILLER_27_19
*1189 FILLER_27_194
*1190 FILLER_27_201
*1191 FILLER_27_213
*1192 FILLER_27_221
*1193 FILLER_27_225
*1194 FILLER_27_237
*1195 FILLER_27_249
*1196 FILLER_27_261
*1197 FILLER_27_277
*1198 FILLER_27_281
*1199 FILLER_27_293
*1200 FILLER_27_305
*1201 FILLER_27_317
*1202 FILLER_27_329
*1203 FILLER_27_335
*1204 FILLER_27_337
*1205 FILLER_27_34
*1206 FILLER_27_349
*1207 FILLER_27_361
*1208 FILLER_27_373
*1209 FILLER_27_385
*1210 FILLER_27_391
*1211 FILLER_27_393
*1212 FILLER_27_405
*1213 FILLER_27_46
*1214 FILLER_27_54
*1215 FILLER_27_57
*1216 FILLER_27_69
*1217 FILLER_27_81
*1218 FILLER_27_93
*1219 FILLER_28_109
*1220 FILLER_28_121
*1221 FILLER_28_133
*1222 FILLER_28_139
*1223 FILLER_28_141
*1224 FILLER_28_15
*1225 FILLER_28_153
*1226 FILLER_28_165
*1227 FILLER_28_177
*1228 FILLER_28_189
*1229 FILLER_28_195
*1230 FILLER_28_197
*1231 FILLER_28_205
*1232 FILLER_28_211
*1233 FILLER_28_223
*1234 FILLER_28_231
*1235 FILLER_28_237
*1236 FILLER_28_249
*1237 FILLER_28_269
*1238 FILLER_28_27
*1239 FILLER_28_281
*1240 FILLER_28_29
*1241 FILLER_28_293
*1242 FILLER_28_3
*1243 FILLER_28_305
*1244 FILLER_28_309
*1245 FILLER_28_321
*1246 FILLER_28_333
*1247 FILLER_28_345
*1248 FILLER_28_357
*1249 FILLER_28_363
*1250 FILLER_28_365
*1251 FILLER_28_377
*1252 FILLER_28_389
*1253 FILLER_28_401
*1254 FILLER_28_41
*1255 FILLER_28_53
*1256 FILLER_28_65
*1257 FILLER_28_77
*1258 FILLER_28_83
*1259 FILLER_28_85
*1260 FILLER_28_97
*1261 FILLER_29_105
*1262 FILLER_29_111
*1263 FILLER_29_113
*1264 FILLER_29_125
*1265 FILLER_29_137
*1266 FILLER_29_149
*1267 FILLER_29_161
*1268 FILLER_29_167
*1269 FILLER_29_169
*1270 FILLER_29_181
*1271 FILLER_29_189
*1272 FILLER_29_201
*1273 FILLER_29_21
*1274 FILLER_29_213
*1275 FILLER_29_222
*1276 FILLER_29_225
*1277 FILLER_29_234
*1278 FILLER_29_246
*1279 FILLER_29_25
*1280 FILLER_29_258
*1281 FILLER_29_270
*1282 FILLER_29_278
*1283 FILLER_29_281
*1284 FILLER_29_292
*1285 FILLER_29_296
*1286 FILLER_29_30
*1287 FILLER_29_300
*1288 FILLER_29_306
*1289 FILLER_29_314
*1290 FILLER_29_327
*1291 FILLER_29_335
*1292 FILLER_29_337
*1293 FILLER_29_349
*1294 FILLER_29_361
*1295 FILLER_29_373
*1296 FILLER_29_385
*1297 FILLER_29_391
*1298 FILLER_29_393
*1299 FILLER_29_405
*1300 FILLER_29_42
*1301 FILLER_29_50
*1302 FILLER_29_54
*1303 FILLER_29_57
*1304 FILLER_29_69
*1305 FILLER_29_7
*1306 FILLER_29_81
*1307 FILLER_29_93
*1308 FILLER_2_109
*1309 FILLER_2_121
*1310 FILLER_2_133
*1311 FILLER_2_139
*1312 FILLER_2_141
*1313 FILLER_2_15
*1314 FILLER_2_153
*1315 FILLER_2_165
*1316 FILLER_2_177
*1317 FILLER_2_189
*1318 FILLER_2_195
*1319 FILLER_2_197
*1320 FILLER_2_209
*1321 FILLER_2_221
*1322 FILLER_2_233
*1323 FILLER_2_245
*1324 FILLER_2_251
*1325 FILLER_2_253
*1326 FILLER_2_265
*1327 FILLER_2_27
*1328 FILLER_2_277
*1329 FILLER_2_289
*1330 FILLER_2_29
*1331 FILLER_2_3
*1332 FILLER_2_301
*1333 FILLER_2_307
*1334 FILLER_2_309
*1335 FILLER_2_321
*1336 FILLER_2_333
*1337 FILLER_2_345
*1338 FILLER_2_357
*1339 FILLER_2_363
*1340 FILLER_2_365
*1341 FILLER_2_377
*1342 FILLER_2_389
*1343 FILLER_2_401
*1344 FILLER_2_41
*1345 FILLER_2_53
*1346 FILLER_2_65
*1347 FILLER_2_77
*1348 FILLER_2_83
*1349 FILLER_2_85
*1350 FILLER_2_97
*1351 FILLER_30_110
*1352 FILLER_30_118
*1353 FILLER_30_138
*1354 FILLER_30_141
*1355 FILLER_30_153
*1356 FILLER_30_165
*1357 FILLER_30_173
*1358 FILLER_30_177
*1359 FILLER_30_195
*1360 FILLER_30_197
*1361 FILLER_30_209
*1362 FILLER_30_217
*1363 FILLER_30_224
*1364 FILLER_30_236
*1365 FILLER_30_244
*1366 FILLER_30_250
*1367 FILLER_30_253
*1368 FILLER_30_265
*1369 FILLER_30_277
*1370 FILLER_30_295
*1371 FILLER_30_314
*1372 FILLER_30_326
*1373 FILLER_30_338
*1374 FILLER_30_350
*1375 FILLER_30_36
*1376 FILLER_30_362
*1377 FILLER_30_365
*1378 FILLER_30_377
*1379 FILLER_30_389
*1380 FILLER_30_401
*1381 FILLER_30_64
*1382 FILLER_30_7
*1383 FILLER_30_76
*1384 FILLER_30_98
*1385 FILLER_31_102
*1386 FILLER_31_110
*1387 FILLER_31_113
*1388 FILLER_31_122
*1389 FILLER_31_134
*1390 FILLER_31_146
*1391 FILLER_31_158
*1392 FILLER_31_166
*1393 FILLER_31_169
*1394 FILLER_31_175
*1395 FILLER_31_187
*1396 FILLER_31_199
*1397 FILLER_31_211
*1398 FILLER_31_223
*1399 FILLER_31_225
*1400 FILLER_31_233
*1401 FILLER_31_243
*1402 FILLER_31_255
*1403 FILLER_31_266
*1404 FILLER_31_278
*1405 FILLER_31_281
*1406 FILLER_31_293
*1407 FILLER_31_305
*1408 FILLER_31_317
*1409 FILLER_31_329
*1410 FILLER_31_335
*1411 FILLER_31_337
*1412 FILLER_31_349
*1413 FILLER_31_361
*1414 FILLER_31_373
*1415 FILLER_31_385
*1416 FILLER_31_391
*1417 FILLER_31_393
*1418 FILLER_31_40
*1419 FILLER_31_405
*1420 FILLER_31_50
*1421 FILLER_31_66
*1422 FILLER_31_7
*1423 FILLER_31_78
*1424 FILLER_31_90
*1425 FILLER_32_104
*1426 FILLER_32_112
*1427 FILLER_32_118
*1428 FILLER_32_126
*1429 FILLER_32_133
*1430 FILLER_32_139
*1431 FILLER_32_141
*1432 FILLER_32_153
*1433 FILLER_32_165
*1434 FILLER_32_173
*1435 FILLER_32_187
*1436 FILLER_32_195
*1437 FILLER_32_197
*1438 FILLER_32_209
*1439 FILLER_32_221
*1440 FILLER_32_233
*1441 FILLER_32_245
*1442 FILLER_32_251
*1443 FILLER_32_253
*1444 FILLER_32_265
*1445 FILLER_32_27
*1446 FILLER_32_277
*1447 FILLER_32_289
*1448 FILLER_32_3
*1449 FILLER_32_301
*1450 FILLER_32_307
*1451 FILLER_32_309
*1452 FILLER_32_321
*1453 FILLER_32_333
*1454 FILLER_32_34
*1455 FILLER_32_345
*1456 FILLER_32_357
*1457 FILLER_32_363
*1458 FILLER_32_365
*1459 FILLER_32_377
*1460 FILLER_32_389
*1461 FILLER_32_401
*1462 FILLER_32_72
*1463 FILLER_32_83
*1464 FILLER_32_92
*1465 FILLER_33_108
*1466 FILLER_33_113
*1467 FILLER_33_125
*1468 FILLER_33_137
*1469 FILLER_33_141
*1470 FILLER_33_155
*1471 FILLER_33_167
*1472 FILLER_33_169
*1473 FILLER_33_173
*1474 FILLER_33_179
*1475 FILLER_33_183
*1476 FILLER_33_192
*1477 FILLER_33_204
*1478 FILLER_33_21
*1479 FILLER_33_216
*1480 FILLER_33_225
*1481 FILLER_33_233
*1482 FILLER_33_240
*1483 FILLER_33_252
*1484 FILLER_33_264
*1485 FILLER_33_276
*1486 FILLER_33_281
*1487 FILLER_33_293
*1488 FILLER_33_3
*1489 FILLER_33_305
*1490 FILLER_33_317
*1491 FILLER_33_329
*1492 FILLER_33_335
*1493 FILLER_33_337
*1494 FILLER_33_349
*1495 FILLER_33_361
*1496 FILLER_33_37
*1497 FILLER_33_373
*1498 FILLER_33_385
*1499 FILLER_33_391
*1500 FILLER_33_393
*1501 FILLER_33_405
*1502 FILLER_33_43
*1503 FILLER_33_48
*1504 FILLER_33_64
*1505 FILLER_33_84
*1506 FILLER_33_96
*1507 FILLER_34_109
*1508 FILLER_34_121
*1509 FILLER_34_133
*1510 FILLER_34_139
*1511 FILLER_34_141
*1512 FILLER_34_15
*1513 FILLER_34_153
*1514 FILLER_34_165
*1515 FILLER_34_177
*1516 FILLER_34_181
*1517 FILLER_34_197
*1518 FILLER_34_213
*1519 FILLER_34_227
*1520 FILLER_34_239
*1521 FILLER_34_251
*1522 FILLER_34_253
*1523 FILLER_34_265
*1524 FILLER_34_277
*1525 FILLER_34_289
*1526 FILLER_34_29
*1527 FILLER_34_3
*1528 FILLER_34_301
*1529 FILLER_34_307
*1530 FILLER_34_309
*1531 FILLER_34_321
*1532 FILLER_34_327
*1533 FILLER_34_333
*1534 FILLER_34_345
*1535 FILLER_34_357
*1536 FILLER_34_363
*1537 FILLER_34_365
*1538 FILLER_34_377
*1539 FILLER_34_389
*1540 FILLER_34_401
*1541 FILLER_34_41
*1542 FILLER_34_47
*1543 FILLER_34_51
*1544 FILLER_34_63
*1545 FILLER_34_75
*1546 FILLER_34_83
*1547 FILLER_34_85
*1548 FILLER_34_97
*1549 FILLER_35_110
*1550 FILLER_35_128
*1551 FILLER_35_140
*1552 FILLER_35_15
*1553 FILLER_35_152
*1554 FILLER_35_164
*1555 FILLER_35_169
*1556 FILLER_35_181
*1557 FILLER_35_193
*1558 FILLER_35_204
*1559 FILLER_35_216
*1560 FILLER_35_225
*1561 FILLER_35_233
*1562 FILLER_35_250
*1563 FILLER_35_262
*1564 FILLER_35_27
*1565 FILLER_35_274
*1566 FILLER_35_281
*1567 FILLER_35_289
*1568 FILLER_35_3
*1569 FILLER_35_301
*1570 FILLER_35_313
*1571 FILLER_35_325
*1572 FILLER_35_332
*1573 FILLER_35_337
*1574 FILLER_35_345
*1575 FILLER_35_357
*1576 FILLER_35_369
*1577 FILLER_35_381
*1578 FILLER_35_389
*1579 FILLER_35_39
*1580 FILLER_35_393
*1581 FILLER_35_397
*1582 FILLER_35_51
*1583 FILLER_35_55
*1584 FILLER_35_57
*1585 FILLER_35_69
*1586 FILLER_35_86
*1587 FILLER_35_98
*1588 FILLER_36_109
*1589 FILLER_36_125
*1590 FILLER_36_137
*1591 FILLER_36_141
*1592 FILLER_36_153
*1593 FILLER_36_165
*1594 FILLER_36_177
*1595 FILLER_36_189
*1596 FILLER_36_195
*1597 FILLER_36_197
*1598 FILLER_36_209
*1599 FILLER_36_21
*1600 FILLER_36_221
*1601 FILLER_36_230
*1602 FILLER_36_242
*1603 FILLER_36_250
*1604 FILLER_36_253
*1605 FILLER_36_265
*1606 FILLER_36_27
*1607 FILLER_36_278
*1608 FILLER_36_29
*1609 FILLER_36_290
*1610 FILLER_36_302
*1611 FILLER_36_309
*1612 FILLER_36_315
*1613 FILLER_36_343
*1614 FILLER_36_355
*1615 FILLER_36_363
*1616 FILLER_36_365
*1617 FILLER_36_377
*1618 FILLER_36_389
*1619 FILLER_36_401
*1620 FILLER_36_41
*1621 FILLER_36_53
*1622 FILLER_36_65
*1623 FILLER_36_77
*1624 FILLER_36_83
*1625 FILLER_36_85
*1626 FILLER_36_9
*1627 FILLER_36_97
*1628 FILLER_37_108
*1629 FILLER_37_12
*1630 FILLER_37_126
*1631 FILLER_37_130
*1632 FILLER_37_144
*1633 FILLER_37_156
*1634 FILLER_37_169
*1635 FILLER_37_181
*1636 FILLER_37_193
*1637 FILLER_37_205
*1638 FILLER_37_217
*1639 FILLER_37_223
*1640 FILLER_37_225
*1641 FILLER_37_237
*1642 FILLER_37_24
*1643 FILLER_37_249
*1644 FILLER_37_261
*1645 FILLER_37_269
*1646 FILLER_37_281
*1647 FILLER_37_297
*1648 FILLER_37_309
*1649 FILLER_37_315
*1650 FILLER_37_322
*1651 FILLER_37_327
*1652 FILLER_37_350
*1653 FILLER_37_36
*1654 FILLER_37_362
*1655 FILLER_37_374
*1656 FILLER_37_386
*1657 FILLER_37_393
*1658 FILLER_37_397
*1659 FILLER_37_48
*1660 FILLER_37_57
*1661 FILLER_37_72
*1662 FILLER_37_84
*1663 FILLER_37_96
*1664 FILLER_38_101
*1665 FILLER_38_113
*1666 FILLER_38_122
*1667 FILLER_38_134
*1668 FILLER_38_138
*1669 FILLER_38_141
*1670 FILLER_38_15
*1671 FILLER_38_151
*1672 FILLER_38_159
*1673 FILLER_38_173
*1674 FILLER_38_185
*1675 FILLER_38_193
*1676 FILLER_38_197
*1677 FILLER_38_205
*1678 FILLER_38_221
*1679 FILLER_38_233
*1680 FILLER_38_245
*1681 FILLER_38_251
*1682 FILLER_38_253
*1683 FILLER_38_265
*1684 FILLER_38_27
*1685 FILLER_38_277
*1686 FILLER_38_289
*1687 FILLER_38_29
*1688 FILLER_38_3
*1689 FILLER_38_301
*1690 FILLER_38_307
*1691 FILLER_38_309
*1692 FILLER_38_321
*1693 FILLER_38_333
*1694 FILLER_38_345
*1695 FILLER_38_357
*1696 FILLER_38_363
*1697 FILLER_38_365
*1698 FILLER_38_377
*1699 FILLER_38_389
*1700 FILLER_38_401
*1701 FILLER_38_41
*1702 FILLER_38_53
*1703 FILLER_38_68
*1704 FILLER_38_77
*1705 FILLER_38_83
*1706 FILLER_38_85
*1707 FILLER_38_97
*1708 FILLER_39_102
*1709 FILLER_39_110
*1710 FILLER_39_113
*1711 FILLER_39_125
*1712 FILLER_39_137
*1713 FILLER_39_149
*1714 FILLER_39_15
*1715 FILLER_39_161
*1716 FILLER_39_167
*1717 FILLER_39_169
*1718 FILLER_39_181
*1719 FILLER_39_193
*1720 FILLER_39_205
*1721 FILLER_39_217
*1722 FILLER_39_223