*SPEF "ieee 1481-1999"
*DESIGN "SarsaNada_e8"
*DATE "14:11:24 Tuesday September 16, 2025"
*VENDOR "The OpenROAD Project"
*PROGRAM "OpenROAD"
*VERSION "edf00dff99f6c40d67a30c0e22a8191c5d2ed9d6"
*DESIGN_FLOW "NAME_SCOPE LOCAL" "PIN_CAP NONE"
*DIVIDER /
*DELIMITER :
*BUS_DELIMITER []
*T_UNIT 1 NS
*C_UNIT 1 PF
*R_UNIT 1 OHM
*L_UNIT 1 HENRY

*NAME_MAP
*1 A[0]
*2 A[1]
*3 B[0]
*4 B[1]
*5 net5
*6 P[1]
*7 P[2]
*8 net6
*11 net1
*12 net2
*13 net3
*14 net4
*15 pp0
*16 FILLER_0_15
*17 FILLER_0_27
*18 FILLER_0_29
*19 FILLER_0_3
*20 FILLER_0_41
*21 FILLER_0_53
*22 FILLER_0_57
*23 FILLER_0_69
*24 FILLER_1_15
*25 FILLER_1_27
*26 FILLER_1_3
*27 FILLER_1_39
*28 FILLER_1_51
*29 FILLER_1_55
*30 FILLER_1_57
*31 FILLER_1_69
*32 FILLER_2_15
*33 FILLER_2_27
*34 FILLER_2_29
*35 FILLER_2_3
*36 FILLER_2_41
*37 FILLER_2_53
*38 FILLER_2_65
*39 FILLER_2_77
*40 FILLER_3_15
*41 FILLER_3_27
*42 FILLER_3_3
*43 FILLER_3_39
*44 FILLER_3_51
*45 FILLER_3_55
*46 FILLER_3_57
*47 FILLER_3_69
*48 FILLER_4_15
*49 FILLER_4_27
*50 FILLER_4_29
*51 FILLER_4_3
*52 FILLER_4_37
*53 FILLER_4_43
*54 FILLER_4_55
*55 FILLER_4_67
*56 FILLER_4_75
*57 FILLER_5_17
*58 FILLER_5_23
*59 FILLER_5_35
*60 FILLER_5_47
*61 FILLER_5_55
*62 FILLER_5_57
*63 FILLER_5_6
*64 FILLER_5_69
*65 FILLER_6_18
*66 FILLER_6_26
*67 FILLER_6_29
*68 FILLER_6_41
*69 FILLER_6_53
*70 FILLER_6_6
*71 FILLER_6_65
*72 FILLER_7_15
*73 FILLER_7_27
*74 FILLER_7_3
*75 FILLER_7_39
*76 FILLER_7_51
*77 FILLER_7_55
*78 FILLER_7_57
*79 FILLER_7_69
*80 FILLER_7_77
*81 FILLER_8_15
*82 FILLER_8_27
*83 FILLER_8_29
*84 FILLER_8_3
*85 FILLER_8_41
*86 FILLER_8_53
*87 FILLER_8_65
*88 FILLER_8_77
*89 FILLER_9_15
*90 FILLER_9_27
*91 FILLER_9_29
*92 FILLER_9_3
*93 FILLER_9_41
*94 FILLER_9_53
*95 FILLER_9_57
*96 FILLER_9_69
*97 PHY_EDGE_ROW_0_Left_10
*98 PHY_EDGE_ROW_0_Right_0
*99 PHY_EDGE_ROW_1_Left_11
*100 PHY_EDGE_ROW_1_Right_1
*101 PHY_EDGE_ROW_2_Left_12
*102 PHY_EDGE_ROW_2_Right_2
*103 PHY_EDGE_ROW_3_Left_13
*104 PHY_EDGE_ROW_3_Right_3
*105 PHY_EDGE_ROW_4_Left_14
*106 PHY_EDGE_ROW_4_Right_4
*107 PHY_EDGE_ROW_5_Left_15
*108 PHY_EDGE_ROW_5_Right_5
*109 PHY_EDGE_ROW_6_Left_16
*110 PHY_EDGE_ROW_6_Right_6
*111 PHY_EDGE_ROW_7_Left_17
*112 PHY_EDGE_ROW_7_Right_7
*113 PHY_EDGE_ROW_8_Left_18
*114 PHY_EDGE_ROW_8_Right_8
*115 PHY_EDGE_ROW_9_Left_19
*116 PHY_EDGE_ROW_9_Right_9
*117 SarsaNada_e8_5
*118 SarsaNada_e8_6
*119 TAP_TAPCELL_ROW_0_20
*120 TAP_TAPCELL_ROW_0_21
*121 TAP_TAPCELL_ROW_1_22
*122 TAP_TAPCELL_ROW_2_23
*123 TAP_TAPCELL_ROW_3_24
*124 TAP_TAPCELL_ROW_4_25
*125 TAP_TAPCELL_ROW_5_26
*126 TAP_TAPCELL_ROW_6_27
*127 TAP_TAPCELL_ROW_7_28
*128 TAP_TAPCELL_ROW_8_29
*129 TAP_TAPCELL_ROW_9_30
*130 TAP_TAPCELL_ROW_9_31
*131 _0_
*132 _3_
*133 _4_
*134 input1
*135 input2
*136 output3
*137 output4

*PORTS
A[0] I
A[1] I
B[0] I
B[1] I
P[0] O
P[1] O
P[2] O
P[3] O

*D_NET *1 0.002533
*CONN
*P A[0] I
*I *132:A I *D sky130_fd_sc_hd__clkbuf_1
*CAP
1 A[0] 0.00125588
2 *132:A 0
3 *1:13 0.00125588
4 *1:13 *135:A 0
5 *1:13 *2:17 2.12457e-05
*RES
1 A[0] *1:13 38.1062 
2 *1:13 *132:A 23 
*END

*D_NET *2 0.000715557
*CONN
*P A[1] I
*I *134:A I *D sky130_fd_sc_hd__clkbuf_1
*CAP
1 A[1] 0.0003332
2 *134:A 0
3 *2:17 0.0003332
4 *2:17 *135:A 2.79122e-05
5 *1:13 *2:17 2.12457e-05
*RES
1 A[1] *2:17 27.8627 
2 *2:17 *134:A 23 
*END

*D_NET *4 0.0005496
*CONN
*P B[1] I
*I *135:A I *D sky130_fd_sc_hd__clkbuf_1
*CAP
1 B[1] 0.000255911
2 *135:A 0.000255911
3 *135:A *12:8 9.86551e-06
4 *1:13 *135:A 0
5 *2:17 *135:A 2.79122e-05
*RES
1 B[1] *135:A 47.7832 
*END

*D_NET *5 0.000467196
*CONN
*P P[0] O
*I *117:LO O *D sky130_fd_sc_hd__conb_1
*CAP
1 P[0] 0.000197518
2 *117:LO 0.000197518
3 P[0] P[2] 7.21596e-05
*RES
1 *117:LO P[0] 47.0789 
*END

*D_NET *6 0.000626758
*CONN
*P P[1] O
*I *136:X O *D sky130_fd_sc_hd__buf_2
*CAP
1 P[1] 0.000230569
2 *136:X 0.000230569
3 P[1] P[2] 8.73764e-05
4 P[1] P[3] 7.82427e-05
*RES
1 *136:X P[1] 47.8691 
*END

*D_NET *7 0.000523794
*CONN
*P P[2] O
*I *137:X O *D sky130_fd_sc_hd__buf_2
*CAP
1 P[2] 0.000175758
2 *137:X 0.000175758
3 P[2] *14:12 1.27424e-05
4 P[0] P[2] 7.21596e-05
5 P[1] P[2] 8.73764e-05
*RES
1 *137:X P[2] 47.1648 
*END

*D_NET *8 0.000690187
*CONN
*P P[3] O
*I *118:LO O *D sky130_fd_sc_hd__conb_1
*CAP
1 P[3] 0.000305972
2 *118:LO 0.000305972
3 P[1] P[3] 7.82427e-05
*RES
1 *118:LO P[3] 49.1918 
*END

*D_NET *11 0.000811571
*CONN
*I *131:B I *D sky130_fd_sc_hd__and2_1
*I *134:X O *D sky130_fd_sc_hd__clkbuf_1
*CAP
1 *131:B 0
2 *134:X 0.000247857
3 *11:10 0.000247857
4 *11:10 *131:A 0.000315857
*RES
1 *134:X *11:10 28.4271 
2 *11:10 *131:B 23 
*END

*D_NET *12 0.00084981
*CONN
*I *131:A I *D sky130_fd_sc_hd__and2_1
*I *135:X O *D sky130_fd_sc_hd__clkbuf_1
*CAP
1 *131:A 0.000111365
2 *135:X 0.000150679
3 *12:8 0.000262044
4 *135:A *12:8 9.86551e-06
5 *11:10 *131:A 0.000315857
*RES
1 *135:X *12:8 39.9057 
2 *12:8 *131:A 41.48 
*END

*D_NET *13 0.00227482
*CONN
*I *136:A I *D sky130_fd_sc_hd__buf_2
*I *132:X O *D sky130_fd_sc_hd__clkbuf_1
*CAP
1 *136:A 0
2 *132:X 0.000127718
3 *13:12 0.000574278
4 *13:8 0.000701995
5 *13:12 *14:6 0.000870832
*RES
1 *132:X *13:8 40.2579 
2 *13:8 *13:12 31.82 
3 *13:12 *136:A 23 
*END

*D_NET *14 0.00463364
*CONN
*I *137:A I *D sky130_fd_sc_hd__buf_2
*I *133:X O *D sky130_fd_sc_hd__clkbuf_1
*CAP
1 *137:A 0
2 *133:X 0.0017686
3 *14:12 0.000106431
4 *14:6 0.00187503
5 P[2] *14:12 1.27424e-05
6 *13:12 *14:6 0.000870832
*RES
1 *133:X *14:6 49.3486 
2 *14:6 *14:12 31.9057 
3 *14:12 *137:A 23 
*END

*D_NET *15 0.000220785
*CONN
*I *133:A I *D sky130_fd_sc_hd__clkbuf_1
*I *131:X O *D sky130_fd_sc_hd__and2_1
*CAP
1 *133:A 0.000110392
2 *131:X 0.000110392
*RES
1 *131:X *133:A 48.0507 
*END
