*SPEF "ieee 1481-1999"
*DESIGN "mult4_SarsaNada_e8_SARSA_RUIDO_e9_SARSA_RUIDO_e9_SARSA_RUIDO_e9"
*DATE "18:51:09 Tuesday September 16, 2025"
*VENDOR "The OpenROAD Project"
*PROGRAM "OpenROAD"
*VERSION "edf00dff99f6c40d67a30c0e22a8191c5d2ed9d6"
*DESIGN_FLOW "NAME_SCOPE LOCAL" "PIN_CAP NONE"
*DIVIDER /
*DELIMITER :
*BUS_DELIMITER []
*T_UNIT 1 NS
*C_UNIT 1 PF
*R_UNIT 1 OHM
*L_UNIT 1 HENRY

*NAME_MAP
*1 A[0]
*2 A[1]
*3 A[2]
*4 A[3]
*5 B[0]
*6 B[1]
*7 B[2]
*8 B[3]
*9 P[0]
*10 P[1]
*11 P[2]
*12 P[3]
*13 P[4]
*14 P[5]
*15 P[6]
*16 P[7]
*19 _000_
*20 _001_
*21 _002_
*22 _003_
*23 _004_
*24 _005_
*25 _006_
*26 _007_
*27 _008_
*28 _009_
*29 _010_
*30 _011_
*31 _012_
*32 _013_
*33 _014_
*34 _015_
*35 _016_
*36 _017_
*37 _018_
*38 _019_
*39 _020_
*40 _021_
*41 _022_
*42 _023_
*43 _024_
*44 _025_
*45 _026_
*46 _027_
*47 _028_
*48 _029_
*49 _030_
*50 _031_
*51 _032_
*52 _033_
*53 _034_
*54 _035_
*55 _036_
*56 _037_
*57 _038_
*58 _039_
*59 _040_
*60 _041_
*61 _042_
*62 _043_
*63 _044_
*64 _045_
*65 _046_
*66 net1
*67 net10
*68 net11
*69 net12
*70 net13
*71 net14
*72 net15
*73 net16
*74 net2
*75 net3
*76 net4
*77 net5
*78 net6
*79 net7
*80 net8
*81 net9
*82 FILLER_0_15
*83 FILLER_0_27
*84 FILLER_0_3
*85 FILLER_0_35
*86 FILLER_0_48
*87 FILLER_0_57
*88 FILLER_0_63
*89 FILLER_0_71
*90 FILLER_0_79
*91 FILLER_1_22
*92 FILLER_1_3
*93 FILLER_1_30
*94 FILLER_1_49
*95 FILLER_1_57
*96 FILLER_1_65
*97 FILLER_1_69
*98 FILLER_2_15
*99 FILLER_2_27
*100 FILLER_2_29
*101 FILLER_2_3
*102 FILLER_2_41
*103 FILLER_2_53
*104 FILLER_2_7
*105 FILLER_2_78
*106 FILLER_3_21
*107 FILLER_3_36
*108 FILLER_3_40
*109 FILLER_3_55
*110 FILLER_3_57
*111 FILLER_3_73
*112 FILLER_4_10
*113 FILLER_4_22
*114 FILLER_4_34
*115 FILLER_4_56
*116 FILLER_4_62
*117 FILLER_4_69
*118 FILLER_5_25
*119 FILLER_5_3
*120 FILLER_5_33
*121 FILLER_5_43
*122 FILLER_5_55
*123 FILLER_5_65
*124 FILLER_5_78
*125 FILLER_6_18
*126 FILLER_6_24
*127 FILLER_6_29
*128 FILLER_6_35
*129 FILLER_6_45
*130 FILLER_6_62
*131 FILLER_6_74
*132 FILLER_7_20
*133 FILLER_7_32
*134 FILLER_7_38
*135 FILLER_7_43
*136 FILLER_7_55
*137 FILLER_7_57
*138 FILLER_7_6
*139 FILLER_7_68
*140 FILLER_7_76
*141 FILLER_8_15
*142 FILLER_8_22
*143 FILLER_8_29
*144 FILLER_8_3
*145 FILLER_8_54
*146 FILLER_8_66
*147 FILLER_8_78
*148 FILLER_9_19
*149 FILLER_9_27
*150 FILLER_9_29
*151 FILLER_9_35
*152 FILLER_9_47
*153 FILLER_9_55
*154 FILLER_9_64
*155 FILLER_9_7
*156 FILLER_9_70
*157 FILLER_9_78
*158 PHY_EDGE_ROW_0_Left_10
*159 PHY_EDGE_ROW_0_Right_0
*160 PHY_EDGE_ROW_1_Left_11
*161 PHY_EDGE_ROW_1_Right_1
*162 PHY_EDGE_ROW_2_Left_12
*163 PHY_EDGE_ROW_2_Right_2
*164 PHY_EDGE_ROW_3_Left_13
*165 PHY_EDGE_ROW_3_Right_3
*166 PHY_EDGE_ROW_4_Left_14
*167 PHY_EDGE_ROW_4_Right_4
*168 PHY_EDGE_ROW_5_Left_15
*169 PHY_EDGE_ROW_5_Right_5
*170 PHY_EDGE_ROW_6_Left_16
*171 PHY_EDGE_ROW_6_Right_6
*172 PHY_EDGE_ROW_7_Left_17
*173 PHY_EDGE_ROW_7_Right_7
*174 PHY_EDGE_ROW_8_Left_18
*175 PHY_EDGE_ROW_8_Right_8
*176 PHY_EDGE_ROW_9_Left_19
*177 PHY_EDGE_ROW_9_Right_9
*178 TAP_TAPCELL_ROW_0_20
*179 TAP_TAPCELL_ROW_0_21
*180 TAP_TAPCELL_ROW_1_22
*181 TAP_TAPCELL_ROW_2_23
*182 TAP_TAPCELL_ROW_3_24
*183 TAP_TAPCELL_ROW_4_25
*184 TAP_TAPCELL_ROW_5_26
*185 TAP_TAPCELL_ROW_6_27
*186 TAP_TAPCELL_ROW_7_28
*187 TAP_TAPCELL_ROW_8_29
*188 TAP_TAPCELL_ROW_9_30
*189 TAP_TAPCELL_ROW_9_31
*190 _047_
*191 _048_
*192 _049_
*193 _050_
*194 _051_
*195 _052_
*196 _053_
*197 _054_
*198 _055_
*199 _056_
*200 _057_
*201 _058_
*202 _059_
*203 _060_
*204 _061_
*205 _062_
*206 _063_
*207 _064_
*208 _065_
*209 _066_
*210 _067_
*211 _068_
*212 _069_
*213 _070_
*214 _071_
*215 _072_
*216 _073_
*217 _074_
*218 _075_
*219 _076_
*220 _077_
*221 _078_
*222 _079_
*223 _080_
*224 _081_
*225 _082_
*226 _083_
*227 _084_
*228 _085_
*229 _086_
*230 _087_
*231 _088_
*232 _089_
*233 _090_
*234 _091_
*235 _092_
*236 _093_
*237 _094_
*238 _095_
*239 _096_
*240 _097_
*241 _098_
*242 _099_
*243 _100_
*244 _101_
*245 input1
*246 input2
*247 input3
*248 input4
*249 input5
*250 input6
*251 input7
*252 input8
*253 output10
*254 output11
*255 output12
*256 output13
*257 output14
*258 output15
*259 output16
*260 output9

*PORTS
A[0] I
A[1] I
A[2] I
A[3] I
B[0] I
B[1] I
B[2] I
B[3] I
P[0] O
P[1] O
P[2] O
P[3] O
P[4] O
P[5] O
P[6] O
P[7] O

*D_NET *1 0.00102968
*CONN
*P A[0] I
*I *245:A I *D sky130_fd_sc_hd__buf_1
*CAP
1 A[0] 0.000467454
2 *245:A 0.000467454
3 *245:A *195:A 6.47326e-05
4 *245:A *246:A 0
5 *245:A *22:14 3.00381e-05
*RES
1 A[0] *245:A 11.94 
*END

*D_NET *2 0.000825908
*CONN
*P A[1] I
*I *246:A I *D sky130_fd_sc_hd__buf_1
*CAP
1 A[1] 0.000388808
2 *246:A 0.000388808
3 *246:A *195:B 0
4 *246:A *249:A 0
5 *246:A *22:14 4.82919e-05
6 *245:A *246:A 0
*RES
1 A[1] *246:A 10.35 
*END

*D_NET *3 0.000500262
*CONN
*P A[2] I
*I *247:A I *D sky130_fd_sc_hd__dlymetal6s2s_1
*CAP
1 A[2] 0.000221622
2 *247:A 0.000221622
3 *247:A P[7] 0
4 *247:A *248:A 2.24901e-05
5 *247:A *251:A 3.45293e-05
6 *247:A *252:A 0
7 *247:A *75:10 0
*RES
1 A[2] *247:A 5.35677 
*END

*D_NET *4 0.000535548
*CONN
*P A[3] I
*I *248:A I *D sky130_fd_sc_hd__buf_1
*CAP
1 A[3] 0.000242276
2 *248:A 0.000242276
3 *248:A P[7] 2.85068e-05
4 *247:A *248:A 2.24901e-05
*RES
1 A[3] *248:A 6.8343 
*END

*D_NET *5 0.00103811
*CONN
*P B[0] I
*I *249:A I *D sky130_fd_sc_hd__buf_1
*CAP
1 B[0] 0.000439745
2 *249:A 0.000439745
3 *249:A *190:B 9.72742e-06
4 *249:A *250:A 0
5 *249:A *22:14 4.43871e-06
6 *249:A *66:37 8.35106e-05
7 *249:A *77:8 3.00245e-05
8 *249:A *77:16 3.09164e-05
9 *246:A *249:A 0
*RES
1 B[0] *249:A 11.31 
*END

*D_NET *6 0.00116482
*CONN
*P B[1] I
*I *250:A I *D sky130_fd_sc_hd__buf_1
*CAP
1 B[1] 0.000582408
2 *250:A 0.000582408
3 *250:A *200:A 0
4 *249:A *250:A 0
*RES
1 B[1] *250:A 17.56 
*END

*D_NET *7 0.000900825
*CONN
*P B[2] I
*I *251:A I *D sky130_fd_sc_hd__buf_1
*CAP
1 B[2] 0.000349954
2 *251:A 0.000349954
3 *251:A *201:A 6.71882e-05
4 *251:A *225:B 3.70572e-05
5 *251:A *252:A 4.15853e-05
6 *251:A *27:6 1.47256e-05
7 *251:A *75:12 0
8 *251:A *79:6 5.83121e-06
9 *247:A *251:A 3.45293e-05
*RES
1 B[2] *251:A 9.49043 
*END

*D_NET *8 0.000582317
*CONN
*P B[3] I
*I *252:A I *D sky130_fd_sc_hd__clkbuf_2
*CAP
1 B[3] 0.000245385
2 *252:A 0.000245385
3 *252:A *224:A 4.99619e-05
4 *247:A *252:A 0
5 *251:A *252:A 4.15853e-05
*RES
1 B[3] *252:A 6.63877 
*END

*D_NET *9 0.000606263
*CONN
*P P[0] O
*I *260:X O *D sky130_fd_sc_hd__buf_2
*CAP
1 P[0] 0.000230468
2 *260:X 0.000230468
3 P[0] P[1] 8.4638e-05
4 P[0] *81:21 6.06899e-05
*RES
1 *260:X P[0] 5.92503 
*END

*D_NET *10 0.000684225
*CONN
*P P[1] O
*I *253:X O *D sky130_fd_sc_hd__buf_2
*CAP
1 P[1] 0.000289144
2 *253:X 0.000289144
3 P[1] *253:A 1.17114e-05
4 P[1] *81:10 9.58678e-06
5 P[0] P[1] 8.4638e-05
*RES
1 *253:X P[1] 5.1381 
*END

*D_NET *11 0.000949645
*CONN
*P P[2] O
*I *254:X O *D sky130_fd_sc_hd__buf_2
*CAP
1 P[2] 0.000412372
2 *254:X 0.000412372
3 P[2] *81:6 0.0001249
*RES
1 *254:X P[2] 10.53 
*END

*D_NET *12 0.000472054
*CONN
*P P[3] O
*I *255:X O *D sky130_fd_sc_hd__buf_2
*CAP
1 P[3] 0.000187852
2 *255:X 0.000187852
3 P[3] P[4] 8.4638e-05
4 P[3] *255:A 1.17114e-05
*RES
1 *255:X P[3] 4.90503 
*END

*D_NET *13 0.000460569
*CONN
*P P[4] O
*I *256:X O *D sky130_fd_sc_hd__buf_2
*CAP
1 P[4] 0.000187966
2 *256:X 0.000187966
3 P[3] P[4] 8.4638e-05
*RES
1 *256:X P[4] 4.90503 
*END

*D_NET *14 0.000894056
*CONN
*P P[5] O
*I *257:X O *D sky130_fd_sc_hd__buf_2
*CAP
1 P[5] 0.000447028
2 *257:X 0.000447028
*RES
1 *257:X P[5] 11.55 
*END

*D_NET *15 0.000949794
*CONN
*P P[6] O
*I *258:X O *D sky130_fd_sc_hd__buf_2
*CAP
1 P[6] 0.000474897
2 *258:X 0.000474897
*RES
1 *258:X P[6] 11.655 
*END

*D_NET *16 0.000611914
*CONN
*P P[7] O
*I *259:X O *D sky130_fd_sc_hd__buf_2
*CAP
1 P[7] 0.000271436
2 *259:X 0.000271436
3 P[7] *259:A 4.05358e-05
4 *247:A P[7] 0
5 *248:A P[7] 2.85068e-05
*RES
1 *259:X P[7] 5.92503 
*END

*D_NET *19 0.00173481
*CONN
*I *196:A3 I *D sky130_fd_sc_hd__a31o_1
*I *198:C I *D sky130_fd_sc_hd__and4_1
*I *190:Y O *D sky130_fd_sc_hd__nand2_1
*CAP
1 *196:A3 0.000107709
2 *198:C 2.30223e-05
3 *190:Y 0.000305772
4 *19:12 0.000436504
5 *196:A3 *197:A 5.12969e-06
6 *196:A3 *202:A 3.36624e-05
7 *196:A3 *22:23 4.66108e-05
8 *196:A3 *74:27 0.000144725
9 *198:C *22:14 4.89295e-05
10 *198:C *22:23 7.38676e-05
11 *198:C *74:27 9.17747e-05
12 *19:12 *196:B1 5.16348e-05
13 *19:12 *66:37 0.00031078
14 *19:12 *77:16 0
15 *19:12 *78:23 2.69493e-05
16 *19:12 *78:29 2.77384e-05
*RES
1 *190:Y *19:12 10.355 
2 *19:12 *198:C 2.74 
3 *19:12 *196:A3 3.79 
*END

*D_NET *20 0.000901253
*CONN
*I *204:A I *D sky130_fd_sc_hd__or4b_2
*I *220:A1 I *D sky130_fd_sc_hd__a21o_1
*I *193:X O *D sky130_fd_sc_hd__and2_1
*CAP
1 *204:A 0.00016279
2 *220:A1 2.7535e-05
3 *193:X 0.000107249
4 *20:8 0.000297574
5 *204:A *194:A 4.21973e-05
6 *204:A *204:C 5.05521e-05
7 *204:A *205:B2 0.000128593
8 *204:A *28:8 0
9 *220:A1 *194:A 4.99619e-05
10 *20:8 *194:A 9.80943e-06
11 *20:8 *220:A2 2.49909e-05
*RES
1 *193:X *20:8 3.1 
2 *20:8 *220:A1 2.41 
3 *20:8 *204:A 8.825 
*END

*D_NET *21 0.00192508
*CONN
*I *205:B2 I *D sky130_fd_sc_hd__a2bb2o_1
*I *200:A I *D sky130_fd_sc_hd__xnor2_1
*I *194:Y O *D sky130_fd_sc_hd__nand2_1
*CAP
1 *205:B2 0.000241472
2 *200:A 0.000401562
3 *194:Y 0
4 *21:6 0.000643034
5 *200:A *200:B 0.000116151
6 *200:A *220:B1 0
7 *200:A *66:56 3.45588e-05
8 *200:A *81:6 8.8266e-05
9 *205:B2 *204:C 3.94338e-05
10 *205:B2 *204:D_N 4.99619e-05
11 *205:B2 *220:B1 0
12 *205:B2 *28:8 0
13 *205:B2 *29:6 2.0514e-05
14 *205:B2 *30:10 0.000161529
15 *205:B2 *41:12 0
16 *205:B2 *46:12 0
17 *204:A *205:B2 0.000128593
18 *250:A *200:A 0
*RES
1 *194:Y *21:6 3.6 
2 *21:6 *200:A 10.11 
3 *21:6 *205:B2 8.52 
*END

*D_NET *22 0.00426756
*CONN
*I *204:B I *D sky130_fd_sc_hd__or4b_2
*I *205:A1_N I *D sky130_fd_sc_hd__a2bb2o_1
*I *196:B1 I *D sky130_fd_sc_hd__a31o_1
*I *198:D I *D sky130_fd_sc_hd__and4_1
*I *195:X O *D sky130_fd_sc_hd__and2_1
*CAP
1 *204:B 0.000297188
2 *205:A1_N 0
3 *196:B1 4.15944e-05
4 *198:D 0
5 *195:X 0.000409507
6 *22:44 0.000635969
7 *22:23 0.000466025
8 *22:14 0.000495157
9 *196:B1 *198:A 4.82863e-05
10 *196:B1 *74:27 4.66108e-05
11 *196:B1 *77:16 0
12 *196:B1 *78:29 7.06865e-05
13 *204:B *204:C 0.000239813
14 *204:B *205:A2_N 3.60024e-06
15 *204:B *29:6 8.51746e-05
16 *204:B *30:10 2.54692e-05
17 *22:14 *195:A 4.99619e-05
18 *22:14 *195:B 0
19 *22:14 *208:A 0
20 *22:14 *66:6 7.66083e-05
21 *22:14 *66:28 0.000189845
22 *22:14 *74:10 7.89689e-05
23 *22:14 *74:19 0.000136074
24 *22:14 *74:27 1.05984e-05
25 *22:14 *77:16 0.000169953
26 *22:44 *205:A2_N 7.97197e-06
27 *22:44 *28:8 0
28 *22:44 *30:10 4.75462e-05
29 *22:44 *77:16 0
30 *22:44 *78:29 0.000331135
31 *196:A3 *22:23 4.66108e-05
32 *198:C *22:14 4.89295e-05
33 *198:C *22:23 7.38676e-05
34 *245:A *22:14 3.00381e-05
35 *246:A *22:14 4.82919e-05
36 *249:A *22:14 4.43871e-06
37 *19:12 *196:B1 5.16348e-05
*RES
1 *195:X *22:14 13.985 
2 *22:14 *198:D 1.6 
3 *22:14 *22:23 3.14 
4 *22:23 *196:B1 4.92 
5 *22:23 *22:44 6.915 
6 *22:44 *205:A1_N 3.6 
7 *22:44 *204:B 8.025 
*END

*D_NET *23 0.00120572
*CONN
*I *220:A2 I *D sky130_fd_sc_hd__a21o_1
*I *197:A I *D sky130_fd_sc_hd__inv_2
*I *196:X O *D sky130_fd_sc_hd__a31o_1
*CAP
1 *220:A2 0.000178927
2 *197:A 0.000117609
3 *196:X 0
4 *23:4 0.000296536
5 *197:A *199:A 0
6 *197:A *199:B 2.23901e-05
7 *197:A *202:A 2.937e-05
8 *197:A *209:B 8.40269e-05
9 *197:A *25:10 4.58166e-05
10 *220:A2 *193:B 3.6227e-05
11 *220:A2 *194:A 4.66108e-05
12 *220:A2 *28:8 0.000299382
13 *220:A2 *38:18 1.87062e-05
14 *196:A3 *197:A 5.12969e-06
15 *20:8 *220:A2 2.49909e-05
*RES
1 *196:X *23:4 1.6 
2 *23:4 *197:A 4.15 
3 *23:4 *220:A2 9.725 
*END

*D_NET *24 0.000332466
*CONN
*I *199:A I *D sky130_fd_sc_hd__nor2_1
*I *197:Y O *D sky130_fd_sc_hd__inv_2
*CAP
1 *199:A 6.50904e-05
2 *197:Y 6.50904e-05
3 *199:A *199:B 3.99742e-05
4 *199:A *209:B 0.000162311
5 *197:A *199:A 0
*RES
1 *197:Y *199:A 5.045 
*END

*D_NET *25 0.0019347
*CONN
*I *199:B I *D sky130_fd_sc_hd__nor2_1
*I *220:B1 I *D sky130_fd_sc_hd__a21o_1
*I *198:X O *D sky130_fd_sc_hd__and4_1
*CAP
1 *199:B 9.92812e-05
2 *220:B1 0.000265168
3 *198:X 0.000300532
4 *25:10 0.000664981
5 *199:B *200:B 4.66108e-05
6 *199:B *202:A 0
7 *199:B *209:B 9.27255e-06
8 *220:B1 *202:B 5.16348e-05
9 *220:B1 *28:8 9.11811e-05
10 *220:B1 *80:59 7.06865e-05
11 *25:10 *198:A 0.000120655
12 *25:10 *202:A 9.81783e-05
13 *25:10 *74:27 8.34281e-06
14 *197:A *199:B 2.23901e-05
15 *197:A *25:10 4.58166e-05
16 *199:A *199:B 3.99742e-05
17 *200:A *220:B1 0
18 *205:B2 *220:B1 0
*RES
1 *198:X *25:10 5.965 
2 *25:10 *220:B1 10.295 
3 *25:10 *199:B 3.7 
*END

*D_NET *26 0.000375389
*CONN
*I *200:B I *D sky130_fd_sc_hd__xnor2_1
*I *199:Y O *D sky130_fd_sc_hd__nor2_1
*CAP
1 *200:B 0.000106313
2 *199:Y 0.000106313
3 *199:B *200:B 4.66108e-05
4 *200:A *200:B 0.000116151
*RES
1 *199:Y *200:B 9.03 
*END

*D_NET *27 0.00340344
*CONN
*I *206:A_N I *D sky130_fd_sc_hd__nand3b_2
*I *207:B1_N I *D sky130_fd_sc_hd__a21bo_1
*I *241:A1 I *D sky130_fd_sc_hd__a21oi_1
*I *235:C I *D sky130_fd_sc_hd__and3_1
*I *201:Y O *D sky130_fd_sc_hd__nand2_1
*CAP
1 *206:A_N 0.000123971
2 *207:B1_N 0
3 *241:A1 0.000169497
4 *235:C 8.23664e-05
5 *201:Y 0.00029424
6 *27:34 0.000623837
7 *27:10 0.000291298
8 *27:6 0.00083354
9 *206:A_N *206:C 0.000114326
10 *206:A_N *238:A_N 2.33708e-05
11 *235:C *80:102 7.25598e-05
12 *241:A1 *237:A 0
13 *241:A1 *241:A2 4.17687e-05
14 *241:A1 *241:B1 0
15 *241:A1 *60:10 0
16 *241:A1 *61:12 1.22762e-05
17 *241:A1 *76:18 7.06865e-05
18 *241:A1 *76:37 0
19 *241:A1 *80:102 2.34423e-05
20 *27:6 *225:A_N 1.05468e-05
21 *27:6 *225:B 0.000273878
22 *27:6 *225:C 4.82863e-05
23 *27:6 *228:A 7.00889e-06
24 *27:10 *76:37 0
25 *27:10 *80:102 3.60111e-05
26 *27:34 *228:A 6.90876e-05
27 *27:34 *238:A_N 3.50562e-05
28 *27:34 *53:6 0.000131658
29 *251:A *27:6 1.47256e-05
*RES
1 *201:Y *27:6 5.5 
2 *27:6 *27:10 2.7425 
3 *27:10 *235:C 4.7925 
4 *27:10 *241:A1 6.6375 
5 *27:6 *27:34 6.315 
6 *27:34 *207:B1_N 1.6 
7 *27:34 *206:A_N 7.775 
*END

*D_NET *28 0.00190183
*CONN
*I *204:C I *D sky130_fd_sc_hd__or4b_2
*I *205:A2_N I *D sky130_fd_sc_hd__a2bb2o_1
*I *202:Y O *D sky130_fd_sc_hd__nand2_1
*CAP
1 *204:C 0.000168248
2 *205:A2_N 6.08999e-05
3 *202:Y 0.000233236
4 *28:8 0.000462384
5 *204:C *204:D_N 2.30292e-05
6 *204:C *29:6 4.82919e-05
7 *205:A2_N *29:6 8.52845e-05
8 *205:A2_N *30:10 4.98664e-05
9 *28:8 *202:B 5.53249e-06
10 *28:8 *80:59 3.31204e-05
11 *204:A *204:C 5.05521e-05
12 *204:A *28:8 0
13 *204:B *204:C 0.000239813
14 *204:B *205:A2_N 3.60024e-06
15 *205:B2 *204:C 3.94338e-05
16 *205:B2 *28:8 0
17 *220:A2 *28:8 0.000299382
18 *220:B1 *28:8 9.11811e-05
19 *22:44 *205:A2_N 7.97197e-06
20 *22:44 *28:8 0
*RES
1 *202:Y *28:8 8.9325 
2 *28:8 *205:A2_N 5.0775 
3 *28:8 *204:C 7.8225 
*END

*D_NET *29 0.00094434
*CONN
*I *205:B1 I *D sky130_fd_sc_hd__a2bb2o_1
*I *204:D_N I *D sky130_fd_sc_hd__or4b_2
*I *203:X O *D sky130_fd_sc_hd__and2_1
*CAP
1 *205:B1 0
2 *204:D_N 2.7535e-05
3 *203:X 0.000229842
4 *29:6 0.000257377
5 *29:6 *203:A 5.83121e-06
6 *29:6 *30:10 6.29628e-05
7 *29:6 *31:10 4.85359e-05
8 *204:B *29:6 8.51746e-05
9 *204:C *204:D_N 2.30292e-05
10 *204:C *29:6 4.82919e-05
11 *205:A2_N *29:6 8.52845e-05
12 *205:B2 *204:D_N 4.99619e-05
13 *205:B2 *29:6 2.0514e-05
*RES
1 *203:X *29:6 6.535 
2 *29:6 *204:D_N 2.41 
3 *29:6 *205:B1 1.6 
*END

*D_NET *30 0.0035253
*CONN
*I *229:A I *D sky130_fd_sc_hd__and3_1
*I *231:A1 I *D sky130_fd_sc_hd__a21oi_1
*I *230:A I *D sky130_fd_sc_hd__nand3_1
*I *206:B I *D sky130_fd_sc_hd__nand3b_2
*I *207:A1 I *D sky130_fd_sc_hd__a21bo_1
*I *204:X O *D sky130_fd_sc_hd__or4b_2
*CAP
1 *229:A 0
2 *231:A1 7.60416e-05
3 *230:A 0
4 *206:B 3.5663e-05
5 *207:A1 0
6 *204:X 0.000423558
7 *30:51 0.000203378
8 *30:38 0.000333597
9 *30:19 0.000331297
10 *30:10 0.000512932
11 *231:A1 *229:C 0.000342334
12 *231:A1 *232:B 1.43191e-05
13 *231:A1 *239:A1 4.89295e-05
14 *231:A1 *239:A2 4.77757e-05
15 *231:A1 *239:C1 4.66108e-05
16 *231:A1 *56:6 0.000100519
17 *30:10 *211:C 0
18 *30:10 *31:10 0.000116165
19 *30:19 *206:C 0.000164686
20 *30:19 *31:10 2.14129e-05
21 *30:19 *32:10 0
22 *30:38 *230:C 1.16578e-05
23 *30:38 *231:A2 4.43603e-05
24 *30:38 *32:10 0
25 *30:38 *32:16 1.05984e-05
26 *30:51 *229:B 4.31189e-05
27 *30:51 *239:A1 0.00015697
28 *30:51 *32:10 2.59981e-05
29 *30:51 *32:16 6.60042e-05
30 *204:B *30:10 2.54692e-05
31 *205:A2_N *30:10 4.98664e-05
32 *205:B2 *30:10 0.000161529
33 *22:44 *30:10 4.75462e-05
34 *29:6 *30:10 6.29628e-05
*RES
1 *204:X *30:10 10.155 
2 *30:10 *207:A1 3.6 
3 *30:10 *30:19 2.145 
4 *30:19 *206:B 4.05 
5 *30:19 *30:38 5.75 
6 *30:38 *230:A 1.6 
7 *30:38 *30:51 7.12 
8 *30:51 *231:A1 4.81 
9 *30:51 *229:A 1.6 
*END

*D_NET *31 0.000982105
*CONN
*I *206:C I *D sky130_fd_sc_hd__nand3b_2
*I *207:A2 I *D sky130_fd_sc_hd__a21bo_1
*I *205:X O *D sky130_fd_sc_hd__a2bb2o_1
*CAP
1 *206:C 4.8325e-05
2 *207:A2 4.70201e-05
3 *205:X 0.000140139
4 *31:10 0.000235484
5 *207:A2 *238:A_N 4.60123e-05
6 *206:A_N *206:C 0.000114326
7 *29:6 *31:10 4.85359e-05
8 *30:10 *31:10 0.000116165
9 *30:19 *206:C 0.000164686
10 *30:19 *31:10 2.14129e-05
*RES
1 *205:X *31:10 6.03 
2 *31:10 *207:A2 4.395 
3 *31:10 *206:C 5.49 
*END

*D_NET *32 0.00257183
*CONN
*I *216:A I *D sky130_fd_sc_hd__and3_1
*I *217:A1 I *D sky130_fd_sc_hd__a21o_1
*I *229:B I *D sky130_fd_sc_hd__and3_1
*I *230:B I *D sky130_fd_sc_hd__nand3_1
*I *231:A2 I *D sky130_fd_sc_hd__a21oi_1
*I *206:Y O *D sky130_fd_sc_hd__nand3b_2
*CAP
1 *216:A 8.92775e-05
2 *217:A1 0
3 *229:B 0.000136392
4 *230:B 0
5 *231:A2 0.000142416
6 *206:Y 0.000110904
7 *32:45 0.000193415
8 *32:16 0.000354401
9 *32:10 0.000521024
10 *32:6 0.000387686
11 *216:A *216:B 2.66586e-05
12 *216:A *217:B1 0.00012657
13 *229:B *234:B 0
14 *229:B *239:A1 3.11771e-06
15 *231:A2 *230:C 4.99619e-05
16 *231:A2 *239:A1 0
17 *231:A2 *239:A2 6.20952e-05
18 *32:10 *216:B 3.04982e-05
19 *32:10 *234:B 0
20 *32:10 *33:10 1.22762e-05
21 *32:16 *239:A1 0.000120655
22 *32:45 *216:B 1.4399e-05
23 *30:19 *32:10 0
24 *30:38 *231:A2 4.43603e-05
25 *30:38 *32:10 0
26 *30:38 *32:16 1.05984e-05
27 *30:51 *229:B 4.31189e-05
28 *30:51 *32:10 2.59981e-05
29 *30:51 *32:16 6.60042e-05
*RES
1 *206:Y *32:6 3.085 
2 *32:6 *32:10 5.165 
3 *32:10 *32:16 4.88 
4 *32:16 *231:A2 8.375 
5 *32:16 *230:B 1.6 
6 *32:10 *229:B 5.745 
7 *32:6 *32:45 1.485 
8 *32:45 *217:A1 1.6 
9 *32:45 *216:A 3.43 
*END

*D_NET *33 0.0015141
*CONN
*I *216:B I *D sky130_fd_sc_hd__and3_1
*I *217:A2 I *D sky130_fd_sc_hd__a21o_1
*I *207:X O *D sky130_fd_sc_hd__a21bo_1
*CAP
1 *216:B 0.000245075
2 *217:A2 0
3 *207:X 0.00033158
4 *33:10 0.000576655
5 *216:B *217:B1 3.23663e-05
6 *216:B *41:12 0
7 *216:B *43:10 0.00012657
8 *33:10 *238:A_N 0.00011802
9 *33:10 *41:12 0
10 *216:A *216:B 2.66586e-05
11 *32:10 *216:B 3.04982e-05
12 *32:10 *33:10 1.22762e-05
13 *32:45 *216:B 1.4399e-05
*RES
1 *207:X *33:10 8.19 
2 *33:10 *217:A2 3.6 
3 *33:10 *216:B 7.335 
*END

*D_NET *34 0.00446958
*CONN
*I *236:A1 I *D sky130_fd_sc_hd__a21oi_1
*I *210:A I *D sky130_fd_sc_hd__or3b_1
*I *213:A1 I *D sky130_fd_sc_hd__o21bai_1
*I *226:A I *D sky130_fd_sc_hd__xnor2_1
*I *208:X O *D sky130_fd_sc_hd__and4_1
*CAP
1 *236:A1 0.000135966
2 *210:A 0
3 *213:A1 0.000134642
4 *226:A 0
5 *208:X 0.000321718
6 *34:21 0.00103422
7 *34:14 0.000956207
8 *34:10 0.000514317
9 *213:A1 *213:A2 0.000102026
10 *236:A1 *226:B 4.49328e-05
11 *236:A1 *60:10 4.31921e-05
12 *236:A1 *80:40 0
13 *34:10 *208:C 0
14 *34:10 *80:40 0
15 *34:21 *38:18 0.000341708
16 *34:21 *51:10 0.000160483
17 *34:21 *80:59 0.000680167
*RES
1 *208:X *34:10 7.5 
2 *34:10 *34:14 2.795 
3 *34:14 *226:A 1.6 
4 *34:14 *34:21 19.77 
5 *34:21 *213:A1 4.15 
6 *34:21 *210:A 1.6 
7 *34:10 *236:A1 6 
*END

*D_NET *35 0.000762027
*CONN
*I *210:B I *D sky130_fd_sc_hd__or3b_1
*I *213:A2 I *D sky130_fd_sc_hd__o21bai_1
*I *209:Y O *D sky130_fd_sc_hd__nand2_1
*CAP
1 *210:B 3.00054e-05
2 *213:A2 9.9193e-05
3 *209:Y 0.000117121
4 *35:8 0.000246319
5 *210:B *210:C_N 1.22762e-05
6 *210:B *36:8 4.18603e-06
7 *210:B *39:8 0
8 *213:A2 *210:C_N 0.000138633
9 *35:8 *210:C_N 1.22676e-05
10 *35:8 *81:21 0
11 *213:A1 *213:A2 0.000102026
*RES
1 *209:Y *35:8 5.235 
2 *35:8 *213:A2 6.135 
3 *35:8 *210:B 4.215 
*END

*D_NET *36 0.00105212
*CONN
*I *219:A1 I *D sky130_fd_sc_hd__a21o_1
*I *214:A I *D sky130_fd_sc_hd__nand3_1
*I *215:B1_N I *D sky130_fd_sc_hd__a21bo_1
*I *210:X O *D sky130_fd_sc_hd__or3b_1
*CAP
1 *219:A1 0.000145761
2 *214:A 2.02426e-05
3 *215:B1_N 0
4 *210:X 6.27978e-05
5 *36:12 4.24401e-05
6 *36:8 0.000230756
7 *214:A *214:B 4.15966e-05
8 *214:A *215:A2 4.99619e-05
9 *219:A1 *219:A2 0
10 *219:A1 *219:B1 0.00013724
11 *219:A1 *39:8 0
12 *219:A1 *40:8 0
13 *36:8 *219:B1 9.50342e-06
14 *36:8 *38:18 0.000116165
15 *36:8 *39:8 0
16 *36:12 *214:B 0.0001249
17 *36:12 *215:A2 6.65725e-05
18 *210:B *36:8 4.18603e-06
*RES
1 *210:X *36:8 4.98 
2 *36:8 *36:12 3.14 
3 *36:12 *215:B1_N 1.6 
4 *36:12 *214:A 2.41 
5 *36:8 *219:A1 6.03 
*END

*D_NET *37 0.00167707
*CONN
*I *212:A_N I *D sky130_fd_sc_hd__and3b_1
*I *226:B I *D sky130_fd_sc_hd__xnor2_1
*I *236:A2 I *D sky130_fd_sc_hd__a21oi_1
*I *211:X O *D sky130_fd_sc_hd__and4_1
*CAP
1 *212:A_N 0.000114555
2 *226:B 7.55103e-05
3 *236:A2 0.000130326
4 *211:X 0
5 *37:10 0.000437673
6 *37:4 0.000346392
7 *212:A_N *75:28 3.23663e-05
8 *212:A_N *75:41 0.000153493
9 *226:B *60:10 3.09164e-05
10 *226:B *80:40 0
11 *236:A2 *236:B1 2.49909e-05
12 *236:A2 *80:25 4.29107e-05
13 *37:10 *227:B_N 4.80285e-05
14 *37:10 *236:B1 5.83121e-06
15 *37:10 *75:28 6.19634e-05
16 *37:10 *80:25 6.28767e-05
17 *37:10 *80:34 6.43067e-05
18 *236:A1 *226:B 4.49328e-05
*RES
1 *211:X *37:4 1.6 
2 *37:4 *37:10 4.365 
3 *37:10 *236:A2 3.7 
4 *37:10 *226:B 7.235 
5 *37:4 *212:A_N 4.12 
*END

*D_NET *38 0.00355226
*CONN
*I *219:B1 I *D sky130_fd_sc_hd__a21o_1
*I *215:A1 I *D sky130_fd_sc_hd__a21bo_1
*I *214:B I *D sky130_fd_sc_hd__nand3_1
*I *212:X O *D sky130_fd_sc_hd__and3b_1
*CAP
1 *219:B1 0.000106773
2 *215:A1 0
3 *214:B 0.000161778
4 *212:X 0.000904135
5 *38:20 0.000161778
6 *38:18 0.00101091
7 *214:B *215:A2 3.35914e-05
8 *219:B1 *40:8 0
9 *219:B1 *41:12 6.9451e-05
10 *38:18 *193:B 8.30853e-06
11 *38:18 *75:52 0.000269493
12 *38:18 *78:29 3.62197e-05
13 *214:A *214:B 4.15966e-05
14 *219:A1 *219:B1 0.00013724
15 *220:A2 *38:18 1.87062e-05
16 *34:21 *38:18 0.000341708
17 *36:8 *219:B1 9.50342e-06
18 *36:8 *38:18 0.000116165
19 *36:12 *214:B 0.0001249
*RES
1 *212:X *38:18 20.065 
2 *38:18 *38:20 2 
3 *38:20 *214:B 4.75 
4 *38:20 *215:A1 1.6 
5 *38:18 *219:B1 6.195 
*END

*D_NET *39 0.00149348
*CONN
*I *219:A2 I *D sky130_fd_sc_hd__a21o_1
*I *215:A2 I *D sky130_fd_sc_hd__a21bo_1
*I *214:C I *D sky130_fd_sc_hd__nand3_1
*I *213:Y O *D sky130_fd_sc_hd__o21bai_1
*CAP
1 *219:A2 0.00027163
2 *215:A2 0.000237144
3 *214:C 0
4 *213:Y 0.000109204
5 *39:12 0.000290845
6 *39:8 0.000434534
7 *219:A2 *40:8 0
8 *210:B *39:8 0
9 *214:A *215:A2 4.99619e-05
10 *214:B *215:A2 3.35914e-05
11 *219:A1 *219:A2 0
12 *219:A1 *39:8 0
13 *36:8 *39:8 0
14 *36:12 *215:A2 6.65725e-05
*RES
1 *213:Y *39:8 5.235 
2 *39:8 *39:12 2.795 
3 *39:12 *214:C 1.6 
4 *39:12 *215:A2 5.53 
5 *39:8 *219:A2 7.665 
*END

*D_NET *40 0.00137506
*CONN
*I *243:A1 I *D sky130_fd_sc_hd__a21oi_1
*I *221:A I *D sky130_fd_sc_hd__and3_1
*I *238:D I *D sky130_fd_sc_hd__and4b_1
*I *214:Y O *D sky130_fd_sc_hd__nand3_1
*CAP
1 *243:A1 2.21401e-05
2 *221:A 0
3 *238:D 0.000130208
4 *214:Y 0.000213286
5 *40:25 8.91205e-05
6 *40:8 0.000410475
7 *238:D *238:C 2.12566e-05
8 *238:D *243:A2 1.16578e-05
9 *238:D *41:12 0
10 *238:D *45:21 0.000112631
11 *238:D *46:23 0.000229398
12 *243:A1 *243:A2 4.82919e-05
13 *243:A1 *243:B1 8.65961e-05
14 *40:8 *41:12 0
15 *40:8 *45:10 0
16 *40:25 *41:12 0
17 *219:A1 *40:8 0
18 *219:A2 *40:8 0
19 *219:B1 *40:8 0
*RES
1 *214:Y *40:8 6.8925 
2 *40:8 *238:D 6.70875 
3 *40:8 *40:25 2.7425 
4 *40:25 *221:A 1.6 
5 *40:25 *243:A1 2.395 
*END

*D_NET *41 0.00149709
*CONN
*I *216:C I *D sky130_fd_sc_hd__and3_1
*I *217:B1 I *D sky130_fd_sc_hd__a21o_1
*I *215:X O *D sky130_fd_sc_hd__a21bo_1
*CAP
1 *216:C 2.8885e-05
2 *217:B1 4.5555e-05
3 *215:X 0.000312954
4 *41:12 0.000387394
5 *217:B1 *43:10 7.60965e-05
6 *41:12 *239:C1 4.70343e-05
7 *41:12 *42:12 3.64998e-06
8 *41:12 *43:10 3.00381e-05
9 *41:12 *45:10 3.86529e-05
10 *41:12 *46:12 0.000298442
11 *205:B2 *41:12 0
12 *216:A *217:B1 0.00012657
13 *216:B *217:B1 3.23663e-05
14 *216:B *41:12 0
15 *219:B1 *41:12 6.9451e-05
16 *238:D *41:12 0
17 *33:10 *41:12 0
18 *40:8 *41:12 0
19 *40:25 *41:12 0
*RES
1 *215:X *41:12 12.365 
2 *41:12 *217:B1 3.43 
3 *41:12 *216:C 2.125 
*END

*D_NET *42 0.00198602
*CONN
*I *218:A_N I *D sky130_fd_sc_hd__and2b_1
*I *233:B1 I *D sky130_fd_sc_hd__a21oi_1
*I *239:A1 I *D sky130_fd_sc_hd__a211o_1
*I *216:X O *D sky130_fd_sc_hd__and3_1
*CAP
1 *218:A_N 0
2 *233:B1 0
3 *239:A1 0.000477625
4 *216:X 0.000110648
5 *42:14 0.00057417
6 *42:12 0.000207192
7 *239:A1 *239:A2 5.68523e-06
8 *239:A1 *56:6 4.77719e-05
9 *42:12 *233:A1 3.05373e-05
10 *42:12 *234:B 0
11 *42:12 *239:C1 8.5225e-05
12 *42:12 *43:10 5.20968e-05
13 *42:14 *218:B 1.34594e-05
14 *42:14 *233:A2 4.82863e-05
15 *229:B *239:A1 3.11771e-06
16 *231:A1 *239:A1 4.89295e-05
17 *231:A2 *239:A1 0
18 *30:51 *239:A1 0.00015697
19 *32:16 *239:A1 0.000120655
20 *41:12 *42:12 3.64998e-06
*RES
1 *216:X *42:12 7.94 
2 *42:12 *42:14 1.485 
3 *42:14 *239:A1 13.175 
4 *42:14 *233:B1 1.6 
5 *42:12 *218:A_N 1.6 
*END

*D_NET *43 0.000918703
*CONN
*I *233:A1 I *D sky130_fd_sc_hd__a21oi_1
*I *218:B I *D sky130_fd_sc_hd__and2b_1
*I *217:X O *D sky130_fd_sc_hd__a21o_1
*CAP
1 *233:A1 1.21986e-05
2 *218:B 0.000113052
3 *217:X 0.000107798
4 *43:10 0.000233048
5 *218:B *233:A2 9.14035e-05
6 *233:A1 *234:B 2.68721e-05
7 *43:10 *234:B 5.53249e-06
8 *43:10 *239:C1 0
9 *216:B *43:10 0.00012657
10 *217:B1 *43:10 7.60965e-05
11 *41:12 *43:10 3.00381e-05
12 *42:12 *233:A1 3.05373e-05
13 *42:12 *43:10 5.20968e-05
14 *42:14 *218:B 1.34594e-05
*RES
1 *217:X *43:10 6.465 
2 *43:10 *218:B 5.43 
3 *43:10 *233:A1 4.215 
*END

*D_NET *44 0.000280837
*CONN
*I *222:A I *D sky130_fd_sc_hd__xor2_1
*I *218:X O *D sky130_fd_sc_hd__and2b_1
*CAP
1 *222:A 8.40231e-05
2 *218:X 8.40231e-05
3 *222:A *222:B 8.01019e-05
4 *222:A *233:A2 3.26889e-05
*RES
1 *218:X *222:A 5.045 
*END

*D_NET *45 0.00103662
*CONN
*I *243:A2 I *D sky130_fd_sc_hd__a21oi_1
*I *221:B I *D sky130_fd_sc_hd__and3_1
*I *238:C I *D sky130_fd_sc_hd__and4b_1
*I *219:X O *D sky130_fd_sc_hd__a21o_1
*CAP
1 *243:A2 0.000103452
2 *221:B 0
3 *238:C 9.89411e-05
4 *219:X 4.61086e-05
5 *45:21 0.000230112
6 *45:10 0.000271709
7 *238:C *238:A_N 0
8 *238:C *46:23 2.73913e-05
9 *243:A2 *243:B1 2.10034e-05
10 *243:A2 *244:B 0
11 *243:A2 *46:23 5.4155e-06
12 *238:D *238:C 2.12566e-05
13 *238:D *243:A2 1.16578e-05
14 *238:D *45:21 0.000112631
15 *243:A1 *243:A2 4.82919e-05
16 *40:8 *45:10 0
17 *41:12 *45:10 3.86529e-05
*RES
1 *219:X *45:10 6.47 
2 *45:10 *238:C 3.01 
3 *45:10 *45:21 1.83 
4 *45:21 *221:B 1.6 
5 *45:21 *243:A2 3.82 
*END

*D_NET *46 0.0023415
*CONN
*I *243:B1 I *D sky130_fd_sc_hd__a21oi_1
*I *221:C I *D sky130_fd_sc_hd__and3_1
*I *238:B I *D sky130_fd_sc_hd__and4b_1
*I *220:X O *D sky130_fd_sc_hd__a21o_1
*CAP
1 *243:B1 0.000200352
2 *221:C 3.22683e-06
3 *238:B 0
4 *220:X 0.000436566
5 *46:23 0.000374004
6 *46:12 0.000606991
7 *243:B1 *244:B 4.9253e-06
8 *46:12 *194:A 2.11084e-05
9 *46:12 *194:B 2.20732e-05
10 *46:23 *238:A_N 4.00541e-06
11 *205:B2 *46:12 0
12 *238:C *46:23 2.73913e-05
13 *238:D *46:23 0.000229398
14 *243:A1 *243:B1 8.65961e-05
15 *243:A2 *243:B1 2.10034e-05
16 *243:A2 *46:23 5.4155e-06
17 *41:12 *46:12 0.000298442
*RES
1 *220:X *46:12 12.23 
2 *46:12 *238:B 1.6 
3 *46:12 *46:23 3.585 
4 *46:23 *221:C 1.765 
5 *46:23 *243:B1 4.495 
*END

*D_NET *47 0.00188025
*CONN
*I *222:B I *D sky130_fd_sc_hd__xor2_1
*I *233:A2 I *D sky130_fd_sc_hd__a21oi_1
*I *244:A I *D sky130_fd_sc_hd__nor2_1
*I *221:X O *D sky130_fd_sc_hd__and3_1
*CAP
1 *222:B 9.61352e-05
2 *233:A2 0.000116142
3 *244:A 0.000368115
4 *221:X 3.41434e-05
5 *47:27 0.00031516
6 *47:8 0.000505141
7 *222:B *256:A 0
8 *244:A *255:A 3.86529e-05
9 *47:8 *239:C1 4.05358e-05
10 *47:27 *239:C1 0.000113745
11 *218:B *233:A2 9.14035e-05
12 *222:A *222:B 8.01019e-05
13 *222:A *233:A2 3.26889e-05
14 *42:14 *233:A2 4.82863e-05
*RES
1 *221:X *47:8 4.47 
2 *47:8 *244:A 12.19 
3 *47:8 *47:27 4.4 
4 *47:27 *233:A2 4.045 
5 *47:27 *222:B 3.445 
*END

*D_NET *48 0.000415319
*CONN
*I *241:B1 I *D sky130_fd_sc_hd__a21oi_1
*I *223:Y O *D sky130_fd_sc_hd__nand2_1
*CAP
1 *241:B1 0.000175907
2 *223:Y 0.000175907
3 *241:B1 *53:23 0
4 *241:B1 *61:12 6.35048e-05
5 *241:A1 *241:B1 0
*RES
1 *223:Y *241:B1 9.975 
*END

*D_NET *49 0.002061
*CONN
*I *225:A_N I *D sky130_fd_sc_hd__and3b_1
*I *227:A_N I *D sky130_fd_sc_hd__and4bb_1
*I *224:X O *D sky130_fd_sc_hd__and4_1
*CAP
1 *225:A_N 0.000271151
2 *227:A_N 6.52624e-05
3 *224:X 0.000265066
4 *49:8 0.000601479
5 *225:A_N *225:B 9.90338e-05
6 *225:A_N *225:C 1.83756e-05
7 *225:A_N *228:A 4.4093e-05
8 *225:A_N *228:B 0.000101317
9 *225:A_N *79:42 1.07797e-05
10 *225:A_N *80:81 5.93588e-05
11 *227:A_N *228:B 4.31189e-05
12 *227:A_N *51:10 4.13171e-05
13 *227:A_N *79:42 8.71001e-05
14 *49:8 *224:C 3.1719e-05
15 *49:8 *79:42 0.000311282
16 *27:6 *225:A_N 1.05468e-05
*RES
1 *224:X *49:8 7.155 
2 *49:8 *227:A_N 5.49 
3 *49:8 *225:A_N 9.075 
*END

*D_NET *50 0.000255756
*CONN
*I *228:A I *D sky130_fd_sc_hd__xor2_1
*I *225:X O *D sky130_fd_sc_hd__and3b_1
*CAP
1 *228:A 6.77834e-05
2 *225:X 6.77834e-05
3 *225:A_N *228:A 4.4093e-05
4 *27:6 *228:A 7.00889e-06
5 *27:34 *228:A 6.90876e-05
*RES
1 *225:X *228:A 4.955 
*END

*D_NET *51 0.00146905
*CONN
*I *228:B I *D sky130_fd_sc_hd__xor2_1
*I *227:B_N I *D sky130_fd_sc_hd__and4bb_1
*I *226:Y O *D sky130_fd_sc_hd__xnor2_1
*CAP
1 *228:B 0.000156675
2 *227:B_N 2.18567e-05
3 *226:Y 0.0002543
4 *51:10 0.000432831
5 *227:B_N *75:28 8.49205e-05
6 *228:B *211:C 0
7 *228:B *76:37 9.24127e-05
8 *228:B *80:81 0
9 *51:10 *211:B 0
10 *51:10 *77:16 0
11 *51:10 *79:42 3.17939e-05
12 *225:A_N *228:B 0.000101317
13 *227:A_N *228:B 4.31189e-05
14 *227:A_N *51:10 4.13171e-05
15 *34:21 *51:10 0.000160483
16 *37:10 *227:B_N 4.80285e-05
*RES