*SPEF "ieee 1481-1999"
*DESIGN "mult4_SARSANPASOS_VENTAJA_RUIDO_e8_SARSA_RUIDO_e9_SARSA_RUIDO_e9_SARSA_RUIDO_e9"
*DATE "18:33:53 Tuesday September 16, 2025"
*VENDOR "The OpenROAD Project"
*PROGRAM "OpenROAD"
*VERSION "edf00dff99f6c40d67a30c0e22a8191c5d2ed9d6"
*DESIGN_FLOW "NAME_SCOPE LOCAL" "PIN_CAP NONE"
*DIVIDER /
*DELIMITER :
*BUS_DELIMITER []
*T_UNIT 1 NS
*C_UNIT 1 PF
*R_UNIT 1 OHM
*L_UNIT 1 HENRY

*NAME_MAP
*1 A[0]
*2 A[1]
*3 A[2]
*4 A[3]
*5 B[0]
*6 B[1]
*7 B[2]
*8 B[3]
*9 P[0]
*10 P[1]
*11 P[2]
*12 P[3]
*13 P[4]
*14 P[5]
*15 P[6]
*16 P[7]
*19 _000_
*20 _001_
*21 _002_
*22 _003_
*23 _004_
*24 _005_
*25 _006_
*26 _007_
*27 _008_
*28 _009_
*29 _010_
*30 _011_
*31 _012_
*32 _013_
*33 _014_
*34 _015_
*35 _016_
*36 _017_
*37 _018_
*38 _019_
*39 _020_
*40 _021_
*41 _022_
*42 _023_
*43 _024_
*44 _025_
*45 _026_
*46 _027_
*47 _028_
*48 _029_
*49 _030_
*50 _031_
*51 _032_
*52 _033_
*53 _034_
*54 _035_
*55 _036_
*56 _037_
*57 _038_
*58 _039_
*59 _040_
*60 _041_
*61 _042_
*62 _043_
*63 _044_
*64 _045_
*65 _046_
*66 net1
*67 net10
*68 net11
*69 net12
*70 net13
*71 net14
*72 net15
*73 net16
*74 net2
*75 net3
*76 net4
*77 net5
*78 net6
*79 net7
*80 net8
*81 net9
*82 FILLER_0_14
*83 FILLER_0_20
*84 FILLER_0_27
*85 FILLER_0_3
*86 FILLER_0_43
*87 FILLER_0_51
*88 FILLER_0_57
*89 FILLER_0_65
*90 FILLER_0_70
*91 FILLER_0_78
*92 FILLER_1_23
*93 FILLER_1_27
*94 FILLER_1_3
*95 FILLER_1_41
*96 FILLER_1_57
*97 FILLER_1_72
*98 FILLER_1_80
*99 FILLER_2_11
*100 FILLER_2_21
*101 FILLER_2_27
*102 FILLER_2_29
*103 FILLER_2_3
*104 FILLER_2_41
*105 FILLER_2_50
*106 FILLER_2_59
*107 FILLER_2_69
*108 FILLER_3_18
*109 FILLER_3_22
*110 FILLER_3_3
*111 FILLER_3_42
*112 FILLER_3_55
*113 FILLER_3_57
*114 FILLER_3_75
*115 FILLER_4_10
*116 FILLER_4_23
*117 FILLER_4_27
*118 FILLER_4_29
*119 FILLER_4_41
*120 FILLER_4_50
*121 FILLER_4_62
*122 FILLER_4_78
*123 FILLER_5_14
*124 FILLER_5_3
*125 FILLER_5_31
*126 FILLER_5_37
*127 FILLER_5_46
*128 FILLER_5_54
*129 FILLER_5_65
*130 FILLER_6_13
*131 FILLER_6_25
*132 FILLER_6_29
*133 FILLER_6_37
*134 FILLER_6_59
*135 FILLER_6_69
*136 FILLER_6_77
*137 FILLER_7_12
*138 FILLER_7_18
*139 FILLER_7_23
*140 FILLER_7_35
*141 FILLER_7_47
*142 FILLER_7_55
*143 FILLER_7_57
*144 FILLER_7_6
*145 FILLER_7_64
*146 FILLER_7_76
*147 FILLER_8_21
*148 FILLER_8_27
*149 FILLER_8_29
*150 FILLER_8_3
*151 FILLER_8_37
*152 FILLER_8_61
*153 FILLER_8_7
*154 FILLER_8_73
*155 FILLER_9_19
*156 FILLER_9_27
*157 FILLER_9_29
*158 FILLER_9_35
*159 FILLER_9_47
*160 FILLER_9_55
*161 FILLER_9_64
*162 FILLER_9_7
*163 FILLER_9_70
*164 FILLER_9_78
*165 PHY_EDGE_ROW_0_Left_10
*166 PHY_EDGE_ROW_0_Right_0
*167 PHY_EDGE_ROW_1_Left_11
*168 PHY_EDGE_ROW_1_Right_1
*169 PHY_EDGE_ROW_2_Left_12
*170 PHY_EDGE_ROW_2_Right_2
*171 PHY_EDGE_ROW_3_Left_13
*172 PHY_EDGE_ROW_3_Right_3
*173 PHY_EDGE_ROW_4_Left_14
*174 PHY_EDGE_ROW_4_Right_4
*175 PHY_EDGE_ROW_5_Left_15
*176 PHY_EDGE_ROW_5_Right_5
*177 PHY_EDGE_ROW_6_Left_16
*178 PHY_EDGE_ROW_6_Right_6
*179 PHY_EDGE_ROW_7_Left_17
*180 PHY_EDGE_ROW_7_Right_7
*181 PHY_EDGE_ROW_8_Left_18
*182 PHY_EDGE_ROW_8_Right_8
*183 PHY_EDGE_ROW_9_Left_19
*184 PHY_EDGE_ROW_9_Right_9
*185 TAP_TAPCELL_ROW_0_20
*186 TAP_TAPCELL_ROW_0_21
*187 TAP_TAPCELL_ROW_1_22
*188 TAP_TAPCELL_ROW_2_23
*189 TAP_TAPCELL_ROW_3_24
*190 TAP_TAPCELL_ROW_4_25
*191 TAP_TAPCELL_ROW_5_26
*192 TAP_TAPCELL_ROW_6_27
*193 TAP_TAPCELL_ROW_7_28
*194 TAP_TAPCELL_ROW_8_29
*195 TAP_TAPCELL_ROW_9_30
*196 TAP_TAPCELL_ROW_9_31
*197 _047_
*198 _048_
*199 _049_
*200 _050_
*201 _051_
*202 _052_
*203 _053_
*204 _054_
*205 _055_
*206 _056_
*207 _057_
*208 _058_
*209 _059_
*210 _060_
*211 _061_
*212 _062_
*213 _063_
*214 _064_
*215 _065_
*216 _066_
*217 _067_
*218 _068_
*219 _069_
*220 _070_
*221 _071_
*222 _072_
*223 _073_
*224 _074_
*225 _075_
*226 _076_
*227 _077_
*228 _078_
*229 _079_
*230 _080_
*231 _081_
*232 _082_
*233 _083_
*234 _084_
*235 _085_
*236 _086_
*237 _087_
*238 _088_
*239 _089_
*240 _090_
*241 _091_
*242 _092_
*243 _093_
*244 _094_
*245 _095_
*246 _096_
*247 _097_
*248 _098_
*249 _099_
*250 _100_
*251 _101_
*252 input1
*253 input2
*254 input3
*255 input4
*256 input5
*257 input6
*258 input7
*259 input8
*260 output10
*261 output11
*262 output12
*263 output13
*264 output14
*265 output15
*266 output16
*267 output9

*PORTS
A[0] I
A[1] I
A[2] I
A[3] I
B[0] I
B[1] I
B[2] I
B[3] I
P[0] O
P[1] O
P[2] O
P[3] O
P[4] O
P[5] O
P[6] O
P[7] O

*D_NET *1 0.00092669
*CONN
*P A[0] I
*I *252:A I *D sky130_fd_sc_hd__buf_1
*CAP
1 A[0] 0.00043584
2 *252:A 0.00043584
3 *252:A *202:B 0
4 *252:A *253:A 0
5 *252:A *23:10 5.50106e-05
*RES
1 A[0] *252:A 47.3214 
*END

*D_NET *2 0.000930853
*CONN
*P A[1] I
*I *253:A I *D sky130_fd_sc_hd__buf_1
*CAP
1 A[1] 0.000437921
2 *253:A 0.000437921
3 *253:A P[1] 0
4 *253:A *23:10 5.50106e-05
5 *252:A *253:A 0
*RES
1 A[1] *253:A 47.3214 
*END

*D_NET *3 0.000556153
*CONN
*P A[2] I
*I *254:A I *D sky130_fd_sc_hd__dlymetal6s2s_1
*CAP
1 A[2] 0.000238652
2 *254:A 0.000238652
3 *254:A P[7] 0
4 *254:A *255:A 2.12457e-05
5 *254:A *7:13 3.25681e-05
6 *254:A *75:8 2.50347e-05
*RES
1 A[2] *254:A 47.7832 
*END

*D_NET *4 0.000618748
*CONN
*P A[3] I
*I *255:A I *D sky130_fd_sc_hd__buf_1
*CAP
1 A[3] 0.000284795
2 *255:A 0.000284795
3 *255:A P[7] 2.79122e-05
4 *254:A *255:A 2.12457e-05
*RES
1 A[3] *255:A 49.8062 
*END

*D_NET *5 0.000902611
*CONN
*P B[0] I
*I *256:A I *D sky130_fd_sc_hd__buf_1
*CAP
1 B[0] 0.000433089
2 *256:A 0.000433089
3 *256:A P[0] 0
4 *256:A *6:11 0
5 *256:A *23:14 3.64337e-05
*RES
1 B[0] *256:A 47.4664 
*END

*D_NET *6 0.0014008
*CONN
*P B[1] I
*I *257:A I *D sky130_fd_sc_hd__buf_1
*CAP
1 B[1] 0.000671092
2 *257:A 0
3 *6:11 0.000671092
4 *6:11 P[1] 0
5 *6:11 *19:10 0
6 *6:11 *23:14 0
7 *6:11 *66:42 0
8 *6:11 *78:42 5.86143e-05
9 *256:A *6:11 0
*RES
1 B[1] *6:11 27.6357 
2 *6:11 *257:A 23 
*END

*D_NET *7 0.00101985
*CONN
*P B[2] I
*I *258:A I *D sky130_fd_sc_hd__buf_1
*CAP
1 B[2] 0.000313471
2 *258:A 0
3 *7:13 0.000313471
4 *7:13 *8:17 0.000305326
5 *7:13 *80:12 0
6 *7:13 *80:23 5.50106e-05
7 *254:A *7:13 3.25681e-05
*RES
1 B[2] *7:13 29.1389 
2 *7:13 *258:A 23 
*END

*D_NET *8 0.000936422
*CONN
*P B[3] I
*I *259:A I *D sky130_fd_sc_hd__clkbuf_2
*CAP
1 B[3] 0.000315548
2 *259:A 0
3 *8:17 0.000315548
4 *7:13 *8:17 0.000305326
*RES
1 B[3] *8:17 28.3391 
2 *8:17 *259:A 23 
*END

*D_NET *9 0.00102205
*CONN
*P P[0] O
*I *267:X O *D sky130_fd_sc_hd__buf_2
*CAP
1 P[0] 0.000496333
2 *267:X 0.000496333
3 P[0] *267:A 2.93845e-05
4 *256:A P[0] 0
*RES
1 *267:X P[0] 47.57 
*END

*D_NET *10 0.00177539
*CONN
*P P[1] O
*I *260:X O *D sky130_fd_sc_hd__buf_2
*CAP
1 P[1] 0.000434886
2 *260:X 8.68279e-05
3 *10:8 0.000521714
4 P[1] *20:40 1.14452e-05
5 P[1] *78:24 3.30568e-05
6 *10:8 *197:B 0.000218601
7 *10:8 *23:10 0.000331203
8 *10:8 *66:36 5.50106e-05
9 *10:8 *66:58 8.264e-05
10 *253:A P[1] 0
11 *6:11 P[1] 0
*RES
1 *260:X *10:8 41.9564 
2 *10:8 P[1] 9.40429 
*END

*D_NET *11 0.00101793
*CONN
*P P[2] O
*I *261:X O *D sky130_fd_sc_hd__buf_2
*CAP
1 P[2] 0.000494273
2 *261:X 0.000494273
3 P[2] *261:A 2.93845e-05
*RES
1 *261:X P[2] 47.57 
*END

*D_NET *12 0.000610701
*CONN
*P P[3] O
*I *262:X O *D sky130_fd_sc_hd__buf_2
*CAP
1 P[3] 0.000287369
2 *262:X 0.000287369
3 P[3] P[4] 0
4 P[3] *69:8 3.59619e-05
*RES
1 *262:X P[3] 47.8691 
*END

*D_NET *13 0.000498156
*CONN
*P P[4] O
*I *263:X O *D sky130_fd_sc_hd__buf_2
*CAP
1 P[4] 0.00024441
2 *263:X 0.00024441
3 P[4] *70:8 9.33529e-06
4 P[3] P[4] 0
*RES
1 *263:X P[4] 47.1648 
*END

*D_NET *14 0.00100219
*CONN
*P P[5] O
*I *264:X O *D sky130_fd_sc_hd__buf_2
*CAP
1 P[5] 0.000501094
2 *264:X 0.000501094
*RES
1 *264:X P[5] 48.9786 
*END

*D_NET *15 0.00107673
*CONN
*P P[6] O
*I *265:X O *D sky130_fd_sc_hd__buf_2
*CAP
1 P[6] 0.000538367
2 *265:X 0.000538367
*RES
1 *265:X P[6] 49.1236 
*END

*D_NET *16 0.000714796
*CONN
*P P[7] O
*I *266:X O *D sky130_fd_sc_hd__buf_2
*CAP
1 P[7] 0.000321772
2 *266:X 0.000321772
3 P[7] *73:10 4.334e-05
4 *254:A P[7] 0
5 *255:A P[7] 2.79122e-05
*RES
1 *266:X P[7] 48.5734 
*END

*D_NET *19 0.00163221
*CONN
*I *204:A3 I *D sky130_fd_sc_hd__a31o_1
*I *203:C I *D sky130_fd_sc_hd__and4_1
*I *197:Y O *D sky130_fd_sc_hd__nand2_1
*CAP
1 *204:A3 0.000145832
2 *203:C 2.25612e-05
3 *197:Y 0.000230538
4 *19:12 0.000168393
5 *19:10 0.000230538
6 *203:C *204:B1 1.81777e-05
7 *203:C *74:49 6.4794e-05
8 *204:A3 *204:B1 0.000162247
9 *204:A3 *206:A 6.68822e-05
10 *204:A3 *25:12 1.24376e-05
11 *204:A3 *28:10 2.45549e-06
12 *204:A3 *74:49 0.00030894
13 *19:10 *197:A 8.15864e-05
14 *19:10 *23:10 1.08287e-05
15 *19:10 *23:14 0.000105995
16 *6:11 *19:10 0
*RES
1 *197:Y *19:10 41.6043 
2 *19:10 *19:12 15 
3 *19:12 *203:C 23.8493 
4 *19:12 *204:A3 27.4536 
*END

*D_NET *20 0.00250071
*CONN
*I *199:A_N I *D sky130_fd_sc_hd__and3b_1
*I *219:B1_N I *D sky130_fd_sc_hd__o21bai_2
*I *216:C_N I *D sky130_fd_sc_hd__or3b_1
*I *198:X O *D sky130_fd_sc_hd__and4_1
*CAP
1 *199:A_N 0
2 *219:B1_N 0.000164973
3 *216:C_N 6.75216e-05
4 *198:X 0
5 *20:40 0.000125538
6 *20:12 0.000616928
7 *20:4 0.000509971
8 *216:C_N *214:B 0.000148688
9 *216:C_N *216:A 0.000141052
10 *216:C_N *35:10 9.78523e-05
11 *219:B1_N *35:16 0
12 *219:B1_N *39:8 2.93845e-05
13 *219:B1_N *80:29 3.3123e-05
14 *219:B1_N *80:50 6.92704e-05
15 *20:12 *35:16 0
16 *20:12 *36:10 0.000358425
17 *20:12 *74:8 0
18 *20:12 *80:50 2.76611e-06
19 *20:40 *36:10 5.50049e-05
20 *20:40 *66:42 3.83778e-05
21 *20:40 *74:8 2.54046e-05
22 *20:40 *78:24 4.98718e-06
23 P[1] *20:40 1.14452e-05
*RES
1 *198:X *20:4 23 
2 *20:4 *20:12 20.7793 
3 *20:12 *216:C_N 41.0036 
4 *20:12 *219:B1_N 41.2314 
5 *20:4 *20:40 32.175 
6 *20:40 *199:A_N 23 
*END

*D_NET *21 0.00176622
*CONN
*I *210:A I *D sky130_fd_sc_hd__or4b_2
*I *226:A1 I *D sky130_fd_sc_hd__a21o_1
*I *200:X O *D sky130_fd_sc_hd__and2_1
*CAP
1 *210:A 3.44006e-05
2 *226:A1 0.000282364
3 *200:X 0.000163746
4 *21:10 0.000480511
5 *210:A *201:B 0.000128723
6 *210:A *210:D_N 5.3304e-05
7 *210:A *29:6 9.84794e-05
8 *210:A *75:60 1.32314e-05
9 *226:A1 *206:A 6.07611e-06
10 *226:A1 *22:10 2.60152e-05
11 *226:A1 *25:12 9.48381e-06
12 *226:A1 *29:12 0.000187986
13 *226:A1 *36:26 0.000140613
14 *226:A1 *77:79 0
15 *226:A1 *78:50 5.50049e-05
16 *21:10 *30:8 8.62783e-05
17 *21:10 *46:10 0
*RES
1 *200:X *21:10 40.5271 
2 *21:10 *226:A1 43.7171 
3 *21:10 *210:A 39.5743 
*END

*D_NET *22 0.0026127
*CONN
*I *211:B2 I *D sky130_fd_sc_hd__a2bb2o_1
*I *206:A I *D sky130_fd_sc_hd__xnor2_1
*I *201:Y O *D sky130_fd_sc_hd__nand2_1
*CAP
1 *211:B2 0
2 *206:A 0.000264205
3 *201:Y 0.000276094
4 *22:10 0.000540299
5 *206:A *204:B1 9.75779e-05
6 *206:A *205:A_N 0.000217372
7 *206:A *205:B 0.000111308
8 *206:A *23:14 4.6318e-06
9 *206:A *23:34 7.91493e-05
10 *206:A *24:8 0.000351519
11 *206:A *25:12 3.34247e-05
12 *206:A *77:79 6.16531e-05
13 *206:A *78:50 2.11887e-05
14 *22:10 *210:B 6.68793e-05
15 *22:10 *23:34 2.60152e-05
16 *22:10 *29:12 0.000138718
17 *22:10 *38:6 0.000223692
18 *204:A3 *206:A 6.68822e-05
19 *226:A1 *206:A 6.07611e-06
20 *226:A1 *22:10 2.60152e-05
*RES
1 *201:Y *22:10 43.1371 
2 *22:10 *206:A 46.5964 
3 *22:10 *211:B2 38 
*END

*D_NET *23 0.00481856
*CONN
*I *210:B I *D sky130_fd_sc_hd__or4b_2
*I *211:A1_N I *D sky130_fd_sc_hd__a2bb2o_1
*I *204:B1 I *D sky130_fd_sc_hd__a31o_1
*I *203:D I *D sky130_fd_sc_hd__and4_1
*I *202:X O *D sky130_fd_sc_hd__and2_1
*CAP
1 *210:B 7.29757e-05
2 *211:A1_N 3.79882e-05
3 *204:B1 8.68604e-05
4 *203:D 0
5 *202:X 0.000657497
6 *23:34 0.000236194
7 *23:16 8.68604e-05
8 *23:14 0.000312258
9 *23:10 0.000844525
10 *210:B *210:C 1.65132e-05
11 *210:B *31:10 8.50457e-05
12 *211:A1_N *36:26 4.96207e-05
13 *211:A1_N *39:8 9.77405e-05
14 *23:10 *197:A 9.9002e-05
15 *23:10 *197:B 3.42774e-05
16 *23:10 *260:A 7.67439e-05
17 *23:10 *66:10 0.000189836
18 *23:10 *66:36 0.000431691
19 *23:14 *77:10 9.168e-05
20 *23:14 *77:30 0.000109833
21 *23:14 *77:79 7.30392e-06
22 *23:34 *210:C 1.12919e-05
23 *23:34 *28:10 0.000133658
24 *203:C *204:B1 1.81777e-05
25 *204:A3 *204:B1 0.000162247
26 *206:A *204:B1 9.75779e-05
27 *206:A *23:14 4.6318e-06
28 *206:A *23:34 7.91493e-05
29 *252:A *23:10 5.50106e-05
30 *253:A *23:10 5.50106e-05
31 *256:A *23:14 3.64337e-05
32 *6:11 *23:14 0
33 *10:8 *23:10 0.000331203
34 *19:10 *23:10 1.08287e-05
35 *19:10 *23:14 0.000105995
36 *22:10 *210:B 6.68793e-05
37 *22:10 *23:34 2.60152e-05
*RES
1 *202:X *23:10 39.8614 
2 *23:10 *23:14 18.6664 
3 *23:14 *23:16 15 
4 *23:16 *203:D 23 
5 *23:16 *204:B1 25.6929 
6 *23:14 *23:34 2.96214 
7 *23:34 *211:A1_N 39.0979 
8 *23:34 *210:B 39.9057 
*END

*D_NET *24 0.00220876
*CONN
*I *205:A_N I *D sky130_fd_sc_hd__and2b_1
*I *226:B1 I *D sky130_fd_sc_hd__a21o_1
*I *203:X O *D sky130_fd_sc_hd__and4_1
*CAP
1 *205:A_N 0.000336814
2 *226:B1 0
3 *203:X 0.000157452
4 *24:14 0.000112469
5 *24:8 0.000606736
6 *205:A_N *205:B 2.25419e-05
7 *205:A_N *206:B 0.00010655
8 *24:8 *77:79 0.000223704
9 *24:14 *25:12 6.7177e-06
10 *24:14 *36:41 0
11 *24:14 *77:79 6.68793e-05
12 *206:A *205:A_N 0.000217372
13 *206:A *24:8 0.000351519
*RES
1 *203:X *24:8 27.4536 
2 *24:8 *24:14 32.2579 
3 *24:14 *226:B1 23 
4 *24:8 *205:A_N 30.2914 
*END

*D_NET *25 0.00186548
*CONN
*I *205:B I *D sky130_fd_sc_hd__and2b_1
*I *226:A2 I *D sky130_fd_sc_hd__a21o_1
*I *204:X O *D sky130_fd_sc_hd__a31o_1
*CAP
1 *205:B 0.000384387
2 *226:A2 0
3 *204:X 0
4 *25:12 0.000264899
5 *25:4 0.000649286
6 *205:B *206:B 0.000102093
7 *25:12 *74:49 6.16531e-05
8 *25:12 *77:79 0.000138727
9 *25:12 *78:50 6.85236e-05
10 *204:A3 *25:12 1.24376e-05
11 *205:A_N *205:B 2.25419e-05
12 *206:A *205:B 0.000111308
13 *206:A *25:12 3.34247e-05
14 *226:A1 *25:12 9.48381e-06
15 *24:14 *25:12 6.7177e-06
*RES
1 *204:X *25:4 23 
2 *25:4 *25:12 34.7643 
3 *25:12 *226:A2 23 
4 *25:4 *205:B 29.3593 
*END

*D_NET *26 0.000291678
*CONN
*I *206:B I *D sky130_fd_sc_hd__xnor2_1
*I *205:X O *D sky130_fd_sc_hd__and2b_1
*CAP
1 *206:B 4.15177e-05
2 *205:X 4.15177e-05
3 *205:A_N *206:B 0.00010655
4 *205:B *206:B 0.000102093
*RES
1 *205:X *206:B 48.0507 
*END

*D_NET *27 0.00372128
*CONN
*I *213:A_N I *D sky130_fd_sc_hd__nand3b_2
*I *212:B1_N I *D sky130_fd_sc_hd__a21bo_1
*I *247:A1 I *D sky130_fd_sc_hd__a21oi_1
*I *241:C I *D sky130_fd_sc_hd__and3_1
*I *207:Y O *D sky130_fd_sc_hd__nand2_1
*CAP
1 *213:A_N 0
2 *212:B1_N 0
3 *247:A1 7.04678e-05
4 *241:C 6.89118e-05
5 *207:Y 0
6 *27:39 0.000172013
7 *27:26 0.00104192
8 *27:10 0.000451951
9 *27:4 0.00118248
10 *241:C *241:A 7.02727e-05
11 *247:A1 *241:A 4.04303e-05
12 *247:A1 *247:A2 5.67058e-05
13 *27:10 *243:B 0
14 *27:10 *60:10 0
15 *27:10 *76:12 0
16 *27:26 *231:A_N 8.06804e-06
17 *27:26 *231:C 0.000185434
18 *27:26 *234:A 9.88574e-06
19 *27:26 *234:B 9.50174e-05
20 *27:26 *49:6 8.06804e-06
21 *27:26 *53:10 0.000132572
22 *27:26 *75:18 5.67058e-05
23 *27:39 *53:10 7.03766e-05
*RES
1 *207:Y *27:4 23 
2 *27:4 *27:10 35.4271 
3 *27:10 *241:C 24.4086 
4 *27:10 *247:A1 24.5743 
5 *27:4 *27:26 12.5321 
6 *27:26 *212:B1_N 23 
7 *27:26 *27:39 33.0036 
8 *27:39 *213:A_N 23 
*END

*D_NET *28 0.00177354
*CONN
*I *211:A2_N I *D sky130_fd_sc_hd__a2bb2o_1
*I *210:C I *D sky130_fd_sc_hd__or4b_2
*I *208:Y O *D sky130_fd_sc_hd__nand2_1
*CAP
1 *211:A2_N 0
2 *210:C 0.000205908
3 *208:Y 0.000357096
4 *28:10 0.000563004
5 *210:C *31:10 0.000160915
6 *210:C *78:63 0
7 *28:10 *74:39 0.000320316
8 *28:10 *74:49 2.38387e-06
9 *28:10 *78:63 0
10 *204:A3 *28:10 2.45549e-06
11 *210:B *210:C 1.65132e-05
12 *23:34 *210:C 1.12919e-05
13 *23:34 *28:10 0.000133658
*RES
1 *208:Y *28:10 43.8621 
2 *28:10 *210:C 41.9357 
3 *28:10 *211:A2_N 38 
*END

*D_NET *29 0.0015696
*CONN
*I *210:D_N I *D sky130_fd_sc_hd__or4b_2
*I *211:B1 I *D sky130_fd_sc_hd__a2bb2o_1
*I *209:X O *D sky130_fd_sc_hd__and2_1
*CAP
1 *210:D_N 5.31001e-05
2 *211:B1 0
3 *209:X 9.13756e-05
4 *29:12 9.40024e-05
5 *29:6 0.000238478
6 *210:D_N *201:B 3.46255e-05
7 *210:D_N *38:6 8.34394e-05
8 *29:6 *38:6 0.000356656
9 *29:6 *75:60 0.000139432
10 *210:A *210:D_N 5.3304e-05
11 *210:A *29:6 9.84794e-05
12 *226:A1 *29:12 0.000187986
13 *22:10 *29:12 0.000138718
*RES
1 *209:X *29:6 26.9564 
2 *29:6 *29:12 32.61 
3 *29:12 *211:B1 23 
4 *29:6 *210:D_N 24.595 
*END

*D_NET *30 0.00403135
*CONN
*I *212:A1 I *D sky130_fd_sc_hd__a21bo_1
*I *235:A I *D sky130_fd_sc_hd__and3_1
*I *237:A1 I *D sky130_fd_sc_hd__a21oi_1
*I *236:A I *D sky130_fd_sc_hd__nand3_1
*I *213:B I *D sky130_fd_sc_hd__nand3b_2
*I *210:X O *D sky130_fd_sc_hd__or4b_2
*CAP
1 *212:A1 0.000157396
2 *235:A 0.000141506
3 *237:A1 0
4 *236:A 0
5 *213:B 0.000157404
6 *210:X 0.000238195
7 *30:41 0.00017671
8 *30:31 0.000345453
9 *30:29 0.000624267
10 *30:12 0.000587437
11 *30:8 0.000511605
12 *212:A1 *212:A2 0.000100061
13 *212:A1 *32:10 9.62666e-05
14 *213:B *213:C 5.56279e-05
15 *213:B *222:A 1.37232e-05
16 *213:B *223:A2 4.07902e-05
17 *235:A *238:B 1.72202e-05
18 *235:A *245:C1 5.67058e-05
19 *235:A *55:12 1.32314e-05
20 *235:A *56:10 6.9805e-05
21 *30:8 *75:68 7.28526e-05
22 *30:12 *213:C 3.40698e-05
23 *30:12 *244:A_N 0
24 *30:12 *32:10 8.4047e-05
25 *30:29 *213:C 6.22448e-06
26 *30:29 *244:A_N 0
27 *30:29 *32:10 1.01436e-05
28 *30:29 *42:29 0.000110913
29 *30:29 *53:10 0
30 *30:29 *53:20 1.85903e-05
31 *30:31 *55:12 0.000142656
32 *30:41 *236:C 0
33 *30:41 *53:20 6.86174e-06
34 *30:41 *55:12 5.53064e-05
35 *21:10 *30:8 8.62783e-05
*RES
1 *210:X *30:8 43.075 
2 *30:8 *30:12 2.52714 
3 *30:12 *213:B 41.045 
4 *30:12 *30:29 20.7793 
5 *30:29 *30:31 2.52714 
6 *30:31 *30:41 32.0921 
7 *30:41 *236:A 23 
8 *30:31 *237:A1 23 
9 *30:29 *235:A 26.0243 
10 *30:8 *212:A1 41.48 
*END

*D_NET *31 0.00224438
*CONN
*I *213:C I *D sky130_fd_sc_hd__nand3b_2
*I *212:A2 I *D sky130_fd_sc_hd__a21bo_1
*I *211:X O *D sky130_fd_sc_hd__a2bb2o_1
*CAP
1 *213:C 0.000267257
2 *212:A2 4.64665e-05
3 *211:X 0.000483488
4 *31:10 0.000797211
5 *213:C *53:10 0
6 *31:10 *39:8 0.000143259
7 *31:10 *75:68 6.47558e-05
8 *210:B *31:10 8.50457e-05
9 *210:C *31:10 0.000160915
10 *212:A1 *212:A2 0.000100061
11 *213:B *213:C 5.56279e-05
12 *30:12 *213:C 3.40698e-05
13 *30:29 *213:C 6.22448e-06
*RES
1 *211:X *31:10 47.1143 
2 *31:10 *212:A2 39.0979 
3 *31:10 *213:C 42.6814 
*END

*D_NET *32 0.0010791
*CONN
*I *222:A I *D sky130_fd_sc_hd__and3_1
*I *223:A1 I *D sky130_fd_sc_hd__a21o_1
*I *212:X O *D sky130_fd_sc_hd__a21bo_1
*CAP
1 *222:A 0.000135204
2 *223:A1 0
3 *212:X 0.000217983
4 *32:12 0.000135204
5 *32:10 0.000217983
6 *222:A *223:B1 0.000141954
7 *222:A *33:17 2.65879e-05
8 *32:10 *244:A_N 0
9 *212:A1 *32:10 9.62666e-05
10 *213:B *222:A 1.37232e-05
11 *30:12 *32:10 8.4047e-05
12 *30:29 *32:10 1.01436e-05
*RES
1 *212:X *32:10 41.2521 
2 *32:10 *32:12 15 
3 *32:12 *223:A1 23 
4 *32:12 *222:A 26.0243 
*END

*D_NET *33 0.00344834
*CONN
*I *222:B I *D sky130_fd_sc_hd__and3_1
*I *235:B I *D sky130_fd_sc_hd__and3_1
*I *237:A2 I *D sky130_fd_sc_hd__a21oi_1
*I *236:B I *D sky130_fd_sc_hd__nand3_1
*I *223:A2 I *D sky130_fd_sc_hd__a21o_1
*I *213:Y O *D sky130_fd_sc_hd__nand3b_2
*CAP
1 *222:B 3.75814e-05
2 *235:B 0
3 *237:A2 1.57358e-05
4 *236:B 5.49379e-05
5 *223:A2 5.586e-05
6 *213:Y 0
7 *33:35 0.000552519
8 *33:23 0.000771696
9 *33:17 0.000616501
10 *33:4 0.000344929
11 *222:B *43:6 4.34745e-05
12 *236:B *55:12 2.93335e-05
13 *236:B *63:6 5.68958e-05
14 *237:A2 *55:12 4.26942e-06
15 *237:A2 *56:10 3.23857e-06
16 *33:17 *223:B1 3.53115e-05
17 *33:17 *43:6 9.75779e-05
18 *33:23 *224:A_N 2.76611e-06
19 *33:23 *235:C 8.4047e-05
20 *33:23 *244:A_N 0.000219873
21 *33:23 *42:21 6.11183e-05
22 *33:23 *42:29 0
23 *33:23 *58:8 0
24 *33:35 *238:B 0.000103637
25 *33:35 *55:12 5.38678e-05
26 *33:35 *56:10 7.88926e-05
27 *33:35 *63:6 5.68958e-05
28 *213:B *223:A2 4.07902e-05
29 *222:A *33:17 2.65879e-05
*RES
1 *213:Y *33:4 23 
2 *33:4 *223:A2 24.4707 
3 *33:4 *33:17 4.45357 
4 *33:17 *33:23 35.7793 
5 *33:23 *33:35 37.4779 
6 *33:35 *236:B 24.595 
7 *33:35 *237:A2 23.4971 
8 *33:23 *235:B 23 
9 *33:17 *222:B 23.6214 
*END

*D_NET *34 0.00234687
*CONN
*I *216:A I *D sky130_fd_sc_hd__or3b_1
*I *242:A1 I *D sky130_fd_sc_hd__a21oi_1
*I *232:A I *D sky130_fd_sc_hd__xnor2_1
*I *219:A1 I *D sky130_fd_sc_hd__o21bai_2
*I *214:X O *D sky130_fd_sc_hd__and4_1
*CAP
1 *216:A 6.89475e-05
2 *242:A1 6.69161e-05
3 *232:A 8.43188e-05
4 *219:A1 0
5 *214:X 0.000146836
6 *34:23 0.000280905
7 *34:12 0.000253372
8 *34:6 0.000339485
9 *216:A *214:B 1.76557e-05
10 *216:A *35:10 2.93845e-05
11 *232:A *232:B 9.58714e-05
12 *242:A1 *232:B 6.7327e-05
13 *242:A1 *242:A2 2.28308e-05
14 *242:A1 *37:6 3.22879e-05
15 *242:A1 *51:10 0.00010018
16 *34:6 *214:B 1.5769e-05
17 *34:6 *214:D 7.88828e-05
18 *34:12 *202:B 3.70094e-05
19 *34:12 *35:10 0
20 *34:12 *35:16 6.18132e-05
21 *34:12 *79:10 0.000163352
22 *34:23 *35:16 4.21594e-06
23 *34:23 *60:10 0
24 *34:23 *79:10 0.000238454
25 *34:23 *80:29 0
26 *216:C_N *216:A 0.000141052
*RES
1 *214:X *34:6 26.0036 
2 *34:6 *34:12 18.1071 
3 *34:12 *219:A1 38 
4 *34:12 *34:23 18.3143 
5 *34:23 *232:A 24.5743 
6 *34:23 *242:A1 25.7136 
7 *34:6 *216:A 25.0507 
*END

*D_NET *35 0.00107934
*CONN
*I *216:B I *D sky130_fd_sc_hd__or3b_1
*I *219:A2 I *D sky130_fd_sc_hd__o21bai_2
*I *215:Y O *D sky130_fd_sc_hd__nand2_1
*CAP
1 *216:B 0
2 *219:A2 0
3 *215:Y 0.000172283
4 *35:16 0.000176379
5 *35:10 0.000348662
6 *35:10 *208:B 0
7 *35:10 *214:B 1.03955e-05
8 *35:10 *215:A 3.22879e-05
9 *35:10 *36:10 9.84851e-05
10 *35:16 *202:B 0
11 *35:16 *66:25 1.44546e-05
12 *35:16 *80:29 3.3123e-05
13 *216:A *35:10 2.93845e-05
14 *216:C_N *35:10 9.78523e-05
15 *219:B1_N *35:16 0
16 *20:12 *35:16 0
17 *34:12 *35:10 0
18 *34:12 *35:16 6.18132e-05
19 *34:23 *35:16 4.21594e-06
*RES
1 *215:Y *35:10 26.9979 
2 *35:10 *35:16 33.6664 
3 *35:16 *219:A2 23 
4 *35:10 *216:B 23 
*END

*D_NET *36 0.00543059
*CONN
*I *225:A1 I *D sky130_fd_sc_hd__a21o_1
*I *221:B1_N I *D sky130_fd_sc_hd__a21bo_1
*I *220:A I *D sky130_fd_sc_hd__nand3_1
*I *216:X O *D sky130_fd_sc_hd__or3b_1
*CAP
1 *225:A1 4.33579e-05
2 *221:B1_N 0
3 *220:A 0
4 *216:X 0.000271738
5 *36:41 0.000222877
6 *36:26 0.000857347
7 *36:10 0.000949565
8 *225:A1 *221:A1 0
9 *225:A1 *225:A2 5.50106e-05
10 *225:A1 *225:B1 0.000106299
11 *36:10 *208:B 0.000356724
12 *36:10 *215:A 1.22822e-05
13 *36:10 *66:42 8.72173e-05
14 *36:10 *74:8 0
15 *36:10 *77:47 5.97612e-05
16 *36:26 *220:C 4.39488e-05
17 *36:26 *39:8 0.000718174
18 *36:26 *78:50 0.000462679
19 *36:41 *220:C 8.82053e-06
20 *36:41 *225:A2 0.000140259
21 *36:41 *225:B1 5.3304e-05
22 *36:41 *38:15 9.67842e-05
23 *36:41 *38:23 9.39262e-05
24 *36:41 *39:14 8.16459e-05
25 *36:41 *40:10 6.7177e-06
26 *211:A1_N *36:26 4.96207e-05
27 *226:A1 *36:26 0.000140613
28 *20:12 *36:10 0.000358425
29 *20:40 *36:10 5.50049e-05
30 *24:14 *36:41 0
31 *35:10 *36:10 9.84851e-05
*RES
1 *216:X *36:10 46.3479 
2 *36:10 *36:26 33.6843 
3 *36:26 *220:A 23 
4 *36:26 *36:41 34.7436 
5 *36:41 *221:B1_N 23 
6 *36:41 *225:A1 24.595 
*END

*D_NET *37 0.00150824
*CONN
*I *218:A_N I *D sky130_fd_sc_hd__and3b_1
*I *242:A2 I *D sky130_fd_sc_hd__a21oi_1
*I *232:B I *D sky130_fd_sc_hd__xnor2_1
*I *217:X O *D sky130_fd_sc_hd__and4_1
*CAP
1 *218:A_N 0.000107097
2 *242:A2 1.85078e-05
3 *232:B 9.66917e-05
4 *217:X 0
5 *37:6 0.000299141
6 *37:4 0.000291039
7 *218:A_N *209:B 2.4754e-05
8 *218:A_N *217:A 5.67058e-05
9 *218:A_N *217:B 0.000143655
10 *218:A_N *75:36 4.06849e-05
11 *218:A_N *75:45 1.22822e-05
12 *37:6 *242:B1 0.000128401
13 *37:6 *60:8 5.3304e-05
14 *37:6 *75:36 1.76557e-05
15 *232:A *232:B 9.58714e-05
16 *242:A1 *232:B 6.7327e-05
17 *242:A1 *242:A2 2.28308e-05
18 *242:A1 *37:6 3.22879e-05
*RES
1 *217:X *37:4 23 
2 *37:4 *37:6 4.43286 
3 *37:6 *232:B 25.0507 
4 *37:6 *242:A2 23.4971 
5 *37:4 *218:A_N 26.48 
*END

*D_NET *38 0.00364104
*CONN
*I *225:B1 I *D sky130_fd_sc_hd__a21o_1
*I *220:B I *D sky130_fd_sc_hd__nand3_1
*I *221:A1 I *D sky130_fd_sc_hd__a21bo_1
*I *218:X O *D sky130_fd_sc_hd__and3b_1
*CAP
1 *225:B1 0.000164487
2 *220:B 0
3 *221:A1 2.0995e-05
4 *218:X 0.00069762
5 *38:23 0.000163522
6 *38:15 0.000407986
7 *38:6 0.000798592
8 *221:A1 *225:A2 1.14154e-05
9 *38:6 *201:B 1.76557e-05
10 *38:6 *209:B 2.32101e-05
11 *38:6 *225:A2 2.93845e-05
12 *38:6 *75:60 2.75811e-05
13 *38:6 *78:63 4.21048e-05
14 *38:6 *78:65 5.79559e-05
15 *38:15 *225:A2 2.32004e-05
16 *38:23 *220:C 2.93747e-05
17 *38:23 *40:10 0.000111852
18 *210:D_N *38:6 8.34394e-05
19 *225:A1 *221:A1 0
20 *225:A1 *225:B1 0.000106299
21 *22:10 *38:6 0.000223692
22 *29:6 *38:6 0.000356656
23 *36:41 *225:B1 5.3304e-05
24 *36:41 *38:15 9.67842e-05
25 *36:41 *38:23 9.39262e-05
*RES
1 *218:X *38:6 36.485 
2 *38:6 *221:A1 23.4971 
3 *38:6 *38:15 1.57429 
4 *38:15 *38:23 33.2314 
5 *38:23 *220:B 23 
6 *38:15 *225:B1 26.3764 
*END

*D_NET *39 0.00464401
*CONN
*I *220:C I *D sky130_fd_sc_hd__nand3_1
*I *225:A2 I *D sky130_fd_sc_hd__a21o_1
*I *221:A2 I *D sky130_fd_sc_hd__a21bo_1
*I *219:Y O *D sky130_fd_sc_hd__o21bai_2
*CAP
1 *220:C 0.000171933
2 *225:A2 0.000154681
3 *221:A2 0
4 *219:Y 0.00107174
5 *39:14 0.000256408
6 *39:8 0.0013454
7 *220:C *40:10 5.50106e-05
8 *39:8 *46:10 0.00010018
9 *39:8 *80:50 3.46559e-05
10 *39:14 *46:10 4.23817e-05
11 *39:14 *77:79 0
12 *211:A1_N *39:8 9.77405e-05
13 *219:B1_N *39:8 2.93845e-05
14 *221:A1 *225:A2 1.14154e-05
15 *225:A1 *225:A2 5.50106e-05
16 *31:10 *39:8 0.000143259
17 *36:26 *220:C 4.39488e-05
18 *36:26 *39:8 0.000718174
19 *36:41 *220:C 8.82053e-06
20 *36:41 *225:A2 0.000140259
21 *36:41 *39:14 8.16459e-05
22 *38:6 *225:A2 2.93845e-05
23 *38:15 *225:A2 2.32004e-05
24 *38:23 *220:C 2.93747e-05
*RES
1 *219:Y *39:8 45.0814 
2 *39:8 *39:14 32.2579 
3 *39:14 *221:A2 23 
4 *39:14 *225:A2 26.5007 
5 *39:8 *220:C 26.3764 
*END

*D_NET *40 0.0020516
*CONN
*I *249:A1 I *D sky130_fd_sc_hd__a21oi_1
*I *244:D I *D sky130_fd_sc_hd__and4b_1
*I *227:A I *D sky130_fd_sc_hd__and3_1
*I *220:Y O *D sky130_fd_sc_hd__nand3_1
*CAP
1 *249:A1 0.000174444
2 *244:D 0.000200578
3 *227:A 0
4 *220:Y 0.000271377
5 *40:16 0.000295951
6 *40:10 0.000541195
7 *244:D *244:C 0.000237915
8 *244:D *41:8 0
9 *244:D *45:8 0
10 *244:D *45:16 5.03449e-05
11 *249:A1 *249:B1 5.67058e-05
12 *249:A1 *45:16 4.95081e-05
13 *249:A1 *47:12 0
14 *40:10 *41:8 0
15 *40:10 *45:8 0
16 *40:10 *46:10 0
17 *40:16 *41:8 0
18 *40:16 *45:8 0
19 *220:C *40:10 5.50106e-05
20 *36:41 *40:10 6.7177e-06
21 *38:23 *40:10 0.000111852
*RES
1 *220:Y *40:10 42.64 
2 *40:10 *40:16 1.74 
3 *40:16 *227:A 38 
4 *40:16 *244:D 43.2355 
5 *40:10 *249:A1 40.6721 
*END

*D_NET *41 0.00190841
*CONN
*I *222:C I *D sky130_fd_sc_hd__and3_1
*I *223:B1 I *D sky130_fd_sc_hd__a21o_1
*I *221:X O *D sky130_fd_sc_hd__a21bo_1
*CAP
1 *222:C 0
2 *223:B1 0.000105048
3 *221:X 0.000330022
4 *41:12 0.000210592
5 *41:8 0.000435566
6 *223:B1 *43:6 8.348e-05
7 *41:8 *244:A_N 0
8 *41:8 *244:B 0.000280866
9 *41:8 *244:C 0
10 *41:8 *46:10 0.000141869
11 *41:8 *47:12 0
12 *41:8 *62:8 3.56537e-05
13 *41:12 *224:A_N 7.88828e-05
14 *41:12 *43:6 2.91703e-05
15 *222:A *223:B1 0.000141954
16 *244:D *41:8 0
17 *33:17 *223:B1 3.53115e-05
18 *40:10 *41:8 0
19 *40:16 *41:8 0
*RES
1 *221:X *41:8 45.8921 
2 *41:8 *41:12 17.3614 
3 *41:12 *223:B1 26.335 
4 *41:12 *222:C 23 
*END

*D_NET *42 0.0020253
*CONN
*I *239:B1 I *D sky130_fd_sc_hd__a21oi_1
*I *245:A1 I *D sky130_fd_sc_hd__a211o_1
*I *224:A_N I *D sky130_fd_sc_hd__and2b_1
*I *222:X O *D sky130_fd_sc_hd__and3_1
*CAP
1 *239:B1 7.10171e-05
2 *245:A1 0
3 *224:A_N 0.000115921
4 *222:X 0
5 *42:29 0.000349978
6 *42:21 0.000517897
7 *42:6 0.000212822
8 *224:A_N *224:B 4.34745e-05
9 *224:A_N *244:A_N 0
10 *224:A_N *43:6 0.000185434
11 *224:A_N *43:12 0
12 *42:21 *43:12 0
13 *42:21 *58:8 4.7869e-05
14 *42:29 *235:C 0
15 *42:29 *53:29 0.000227208
16 *30:29 *42:29 0.000110913
17 *33:23 *224:A_N 2.76611e-06
18 *33:23 *42:21 6.11183e-05
19 *33:23 *42:29 0
20 *41:12 *224:A_N 7.88828e-05
*RES
1 *222:X *42:6 38 
2 *42:6 *224:A_N 41.3764 
3 *42:6 *42:21 17.61 
4 *42:21 *42:29 36.6907 
5 *42:29 *245:A1 23 
6 *42:21 *239:B1 24.0979 
*END

*D_NET *43 0.00140014
*CONN
*I *224:B I *D sky130_fd_sc_hd__and2b_1
*I *239:A1 I *D sky130_fd_sc_hd__a21oi_1
*I *223:X O *D sky130_fd_sc_hd__a21o_1
*CAP
1 *224:B 0.000124486
2 *239:A1 0
3 *223:X 0.000168339
4 *43:12 9.81948e-05
5 *43:6 0.00039102
6 *43:12 *58:8 3.55887e-05
7 *43:12 *62:8 9.98995e-05
8 *222:B *43:6 4.34745e-05
9 *223:B1 *43:6 8.348e-05
10 *224:A_N *224:B 4.34745e-05
11 *224:A_N *43:6 0.000185434
12 *224:A_N *43:12 0
13 *33:17 *43:6 9.75779e-05
14 *41:12 *43:6 2.91703e-05
15 *42:21 *43:12 0
*RES
1 *223:X *43:6 27.4329 
2 *43:6 *43:12 32.61 
3 *43:12 *239:A1 23 
4 *43:6 *224:B 25.0507 
*END

*D_NET *44 0.000295286
*CONN
*I *228:A I *D sky130_fd_sc_hd__xor2_1
*I *224:X O *D sky130_fd_sc_hd__and2b_1
*CAP
1 *228:A 0.000147643
2 *224:X 0.000147643
*RES
1 *224:X *228:A 48.5479 
*END

*D_NET *45 0.00169267
*CONN
*I *249:A2 I *D sky130_fd_sc_hd__a21oi_1
*I *244:C I *D sky130_fd_sc_hd__and4b_1
*I *227:B I *D sky130_fd_sc_hd__and3_1
*I *225:X O *D sky130_fd_sc_hd__a21o_1
*CAP
1 *249:A2 0
2 *244:C 0.000249476
3 *227:B 0
4 *225:X 0.000109249
5 *45:16 0.000377012
6 *45:10 0.000127536
7 *45:8 0.000109249
8 *244:C *47:12 7.83471e-05
9 *45:8 *47:38 1.01436e-05
10 *45:16 *249:B1 0.000118503
11 *45:16 *250:B 0.000141954
12 *45:16 *46:14 9.70259e-06
13 *45:16 *47:12 6.07611e-06
14 *45:16 *47:38 1.76557e-05
15 *244:D *244:C 0.000237915
16 *244:D *45:8 0
17 *244:D *45:16 5.03449e-05
18 *249:A1 *45:16 4.95081e-05
19 *40:10 *45:8 0
20 *40:16 *45:8 0
21 *41:8 *244:C 0
*RES
1 *225:X *45:8 39.9057 
2 *45:8 *45:10 15 
3 *45:10 *45:16 19.205 
4 *45:16 *227:B 38 
5 *45:16 *244:C 43.7379 
6 *45:10 *249:A2 23 
*END

*D_NET *46 0.00234311
*CONN
*I *244:B I *D sky130_fd_sc_hd__and4b_1
*I *249:B1 I *D sky130_fd_sc_hd__a21oi_1
*I *227:C I *D sky130_fd_sc_hd__and3_1
*I *226:X O *D sky130_fd_sc_hd__a21o_1
*CAP
1 *244:B 0.000121518
2 *249:B1 7.95363e-05
3 *227:C 0
4 *226:X 0.000258347
5 *46:14 0.000416587
6 *46:10 0.000716915
7 *46:10 *77:79 0
8 *249:A1 *249:B1 5.67058e-05
9 *21:10 *46:10 0
10 *39:8 *46:10 0.00010018
11 *39:14 *46:10 4.23817e-05
12 *40:10 *46:10 0
13 *41:8 *244:B 0.000280866
14 *41:8 *46:10 0.000141869
15 *45:16 *249:B1 0.000118503
16 *45:16 *46:14 9.70259e-06
*RES
1 *226:X *46:10 43.1164 
2 *46:10 *46:14 19.0393 
3 *46:14 *227:C 23 
4 *46:14 *249:B1 25.1336 
5 *46:10 *244:B 41.6664 
*END
