*SPEF "ieee 1481-1999"
*DESIGN "mult4_SarsaNada_e6_SARSA_RUIDO_e9_SarsaNStepsRuido_e9_SARSA_RUIDO_e9"
*DATE "12:05:09 Wednesday September 17, 2025"
*VENDOR "The OpenROAD Project"
*PROGRAM "OpenROAD"
*VERSION "edf00dff99f6c40d67a30c0e22a8191c5d2ed9d6"
*DESIGN_FLOW "NAME_SCOPE LOCAL" "PIN_CAP NONE"
*DIVIDER /
*DELIMITER :
*BUS_DELIMITER []
*T_UNIT 1 NS
*C_UNIT 1 PF
*R_UNIT 1 OHM
*L_UNIT 1 HENRY

*NAME_MAP
*1 A[0]
*2 A[1]
*3 A[2]
*4 A[3]
*5 B[0]
*6 B[1]
*7 B[2]
*8 B[3]
*9 P[0]
*10 P[1]
*11 P[2]
*12 P[3]
*13 P[4]
*14 P[5]
*15 P[6]
*16 P[7]
*19 _000_
*20 _001_
*21 _002_
*22 _003_
*23 _004_
*24 _005_
*25 _006_
*26 _007_
*27 _008_
*28 _009_
*29 _010_
*30 _011_
*31 _012_
*32 _013_
*33 _014_
*34 _015_
*35 _016_
*36 _017_
*37 _018_
*38 _019_
*39 _020_
*40 _021_
*41 _022_
*42 _023_
*43 _024_
*44 _025_
*45 _026_
*46 _027_
*47 _028_
*48 _029_
*49 _030_
*50 _031_
*51 _032_
*52 _033_
*53 _034_
*54 _035_
*55 _036_
*56 _037_
*57 _038_
*58 _039_
*59 _040_
*60 _041_
*61 _042_
*62 _043_
*63 _044_
*64 _045_
*65 _046_
*66 _047_
*67 _048_
*68 _049_
*69 _050_
*70 net1
*71 net10
*72 net11
*73 net12
*74 net13
*75 net14
*76 net15
*77 net16
*78 net2
*79 net3
*80 net4
*81 net5
*82 net6
*83 net7
*84 net8
*85 net9
*86 FILLER_0_15
*87 FILLER_0_29
*88 FILLER_0_3
*89 FILLER_0_37
*90 FILLER_0_62
*91 FILLER_0_74
*92 FILLER_0_80
*93 FILLER_1_3
*94 FILLER_1_34
*95 FILLER_1_46
*96 FILLER_1_54
*97 FILLER_1_64
*98 FILLER_1_76
*99 FILLER_2_13
*100 FILLER_2_25
*101 FILLER_2_34
*102 FILLER_2_38
*103 FILLER_2_46
*104 FILLER_2_60
*105 FILLER_2_67
*106 FILLER_2_80
*107 FILLER_3_21
*108 FILLER_3_27
*109 FILLER_3_3
*110 FILLER_3_47
*111 FILLER_3_55
*112 FILLER_3_62
*113 FILLER_3_74
*114 FILLER_3_80
*115 FILLER_4_12
*116 FILLER_4_24
*117 FILLER_4_29
*118 FILLER_4_40
*119 FILLER_4_48
*120 FILLER_4_62
*121 FILLER_4_70
*122 FILLER_5_24
*123 FILLER_5_32
*124 FILLER_5_36
*125 FILLER_5_48
*126 FILLER_5_57
*127 FILLER_5_69
*128 FILLER_5_9
*129 FILLER_6_25
*130 FILLER_6_65
*131 FILLER_6_80
*132 FILLER_7_15
*133 FILLER_7_27
*134 FILLER_7_3
*135 FILLER_7_39
*136 FILLER_7_44
*137 FILLER_7_57
*138 FILLER_7_69
*139 FILLER_8_19
*140 FILLER_8_3
*141 FILLER_8_36
*142 FILLER_8_62
*143 FILLER_8_68
*144 FILLER_8_7
*145 FILLER_8_76
*146 FILLER_8_80
*147 FILLER_9_15
*148 FILLER_9_23
*149 FILLER_9_29
*150 FILLER_9_3
*151 FILLER_9_41
*152 FILLER_9_53
*153 FILLER_9_67
*154 FILLER_9_75
*155 PHY_EDGE_ROW_0_Left_10
*156 PHY_EDGE_ROW_0_Right_0
*157 PHY_EDGE_ROW_1_Left_11
*158 PHY_EDGE_ROW_1_Right_1
*159 PHY_EDGE_ROW_2_Left_12
*160 PHY_EDGE_ROW_2_Right_2
*161 PHY_EDGE_ROW_3_Left_13
*162 PHY_EDGE_ROW_3_Right_3
*163 PHY_EDGE_ROW_4_Left_14
*164 PHY_EDGE_ROW_4_Right_4
*165 PHY_EDGE_ROW_5_Left_15
*166 PHY_EDGE_ROW_5_Right_5
*167 PHY_EDGE_ROW_6_Left_16
*168 PHY_EDGE_ROW_6_Right_6
*169 PHY_EDGE_ROW_7_Left_17
*170 PHY_EDGE_ROW_7_Right_7
*171 PHY_EDGE_ROW_8_Left_18
*172 PHY_EDGE_ROW_8_Right_8
*173 PHY_EDGE_ROW_9_Left_19
*174 PHY_EDGE_ROW_9_Right_9
*175 TAP_TAPCELL_ROW_0_20
*176 TAP_TAPCELL_ROW_0_21
*177 TAP_TAPCELL_ROW_1_22
*178 TAP_TAPCELL_ROW_2_23
*179 TAP_TAPCELL_ROW_3_24
*180 TAP_TAPCELL_ROW_4_25
*181 TAP_TAPCELL_ROW_5_26
*182 TAP_TAPCELL_ROW_6_27
*183 TAP_TAPCELL_ROW_7_28
*184 TAP_TAPCELL_ROW_8_29
*185 TAP_TAPCELL_ROW_9_30
*186 TAP_TAPCELL_ROW_9_31
*187 _051_
*188 _052_
*189 _053_
*190 _054_
*191 _055_
*192 _056_
*193 _057_
*194 _058_
*195 _059_
*196 _060_
*197 _061_
*198 _062_
*199 _063_
*200 _064_
*201 _065_
*202 _066_
*203 _067_
*204 _068_
*205 _069_
*206 _070_
*207 _071_
*208 _072_
*209 _073_
*210 _074_
*211 _075_
*212 _076_
*213 _077_
*214 _078_
*215 _079_
*216 _080_
*217 _081_
*218 _082_
*219 _083_
*220 _084_
*221 _085_
*222 _086_
*223 _087_
*224 _088_
*225 _089_
*226 _090_
*227 _091_
*228 _092_
*229 _093_
*230 _094_
*231 _095_
*232 _096_
*233 _097_
*234 _098_
*235 _099_
*236 _100_
*237 _101_
*238 _102_
*239 _103_
*240 _104_
*241 _105_
*242 _106_
*243 _107_
*244 _108_
*245 _109_
*246 input1
*247 input2
*248 input3
*249 input4
*250 input5
*251 input6
*252 input7
*253 input8
*254 output10
*255 output11
*256 output12
*257 output13
*258 output14
*259 output15
*260 output16
*261 output9

*PORTS
A[0] I
A[1] I
A[2] I
A[3] I
B[0] I
B[1] I
B[2] I
B[3] I
P[0] O
P[1] O
P[2] O
P[3] O
P[4] O
P[5] O
P[6] O
P[7] O

*D_NET *1 0.000846753
*CONN
*P A[0] I
*I *246:A I *D sky130_fd_sc_hd__clkbuf_2
*CAP
1 A[0] 0.000395765
2 *246:A 0.000395765
3 *246:A *247:A 0
4 *246:A *250:A 0
5 *246:A *70:6 5.52238e-05
*RES
1 A[0] *246:A 21.5321 
*END

*D_NET *2 0.00125106
*CONN
*P A[1] I
*I *247:A I *D sky130_fd_sc_hd__clkbuf_2
*CAP
1 A[1] 0.000416962
2 *247:A 0.000416962
3 *247:A P[0] 0
4 *247:A *70:6 5.71472e-05
5 *247:A *70:41 0.000173328
6 *247:A *78:6 0.000186662
7 *246:A *247:A 0
*RES
1 A[1] *247:A 23.175 
*END

*D_NET *3 0.0007799
*CONN
*P A[2] I
*I *248:A I *D sky130_fd_sc_hd__buf_1
*CAP
1 A[2] 0.00025874
2 *248:A 0.00025874
3 *248:A *249:A 0.00026242
4 *248:A *251:A 0
5 *248:A *40:16 0
*RES
1 A[2] *248:A 21.0874 
*END

*D_NET *4 0.000943286
*CONN
*P A[3] I
*I *249:A I *D sky130_fd_sc_hd__buf_1
*CAP
1 A[3] 0.000313093
2 *249:A 0.000313093
3 *249:A *251:A 3.19385e-05
4 *249:A *40:16 0
5 *249:A *79:6 2.27416e-05
6 *248:A *249:A 0.00026242
*RES
1 A[3] *249:A 22.8161 
*END

*D_NET *5 0.00084331
*CONN
*P B[0] I
*I *250:A I *D sky130_fd_sc_hd__buf_1
*CAP
1 B[0] 0.000421655
2 *250:A 0.000421655
3 *246:A *250:A 0
*RES
1 B[0] *250:A 21.8357 
*END

*D_NET *6 0.000739517
*CONN
*P B[1] I
*I *251:A I *D sky130_fd_sc_hd__clkbuf_2
*CAP
1 B[1] 0.0003402
2 *251:A 0.0003402
3 *251:A *253:A 2.71788e-05
4 *251:A *40:16 0
5 *248:A *251:A 0
6 *249:A *251:A 3.19385e-05
*RES
1 B[1] *251:A 21.8017 
*END

*D_NET *7 0.00094997
*CONN
*P B[2] I
*I *252:A I *D sky130_fd_sc_hd__clkbuf_2
*CAP
1 B[2] 0.000419755
2 *252:A 0.000419755
3 *252:A P[1] 0
4 *252:A *190:A 5.52302e-05
5 *252:A *70:64 5.52302e-05
6 *252:A *81:72 0
*RES
1 B[2] *252:A 22.1929 
*END

*D_NET *8 0.000580475
*CONN
*P B[3] I
*I *253:A I *D sky130_fd_sc_hd__dlymetal6s2s_1
*CAP
1 B[3] 0.000276648
2 *253:A 0.000276648
3 *251:A *253:A 2.71788e-05
*RES
1 B[3] *253:A 20.4803 
*END

*D_NET *9 0.00177751
*CONN
*P P[0] O
*I *261:X O *D sky130_fd_sc_hd__buf_2
*CAP
1 P[0] 0.000699955
2 *261:X 0.000699955
3 P[0] P[1] 0
4 P[0] *192:A3 7.6644e-05
5 P[0] *194:A2 3.41021e-05
6 P[0] *78:25 0
7 P[0] *81:72 0.000266851
8 P[0] *82:28 0
9 *247:A P[0] 0
*RES
1 *261:X P[0] 26.3714 
*END

*D_NET *10 0.000889196
*CONN
*P P[1] O
*I *254:X O *D sky130_fd_sc_hd__buf_2
*CAP
1 P[1] 0.000423899
2 *254:X 0.000423899
3 P[1] *194:B1 2.27601e-05
4 P[1] *78:25 9.52802e-06
5 P[1] *81:72 9.11048e-06
6 P[0] P[1] 0
7 *252:A P[1] 0
*RES
1 *254:X P[1] 21.8893 
*END

*D_NET *11 0.000495987
*CONN
*P P[2] O
*I *255:X O *D sky130_fd_sc_hd__buf_2
*CAP
1 P[2] 0.00024557
2 *255:X 0.00024557
3 P[2] *197:A 4.84757e-06
*RES
1 *255:X P[2] 18.1949 
*END

*D_NET *12 0.00092851
*CONN
*P P[3] O
*I *256:X O *D sky130_fd_sc_hd__buf_2
*CAP
1 P[3] 0.00036695
2 *256:X 0.00036695
3 P[3] P[4] 9.54485e-05
4 P[3] *197:A 0
5 P[3] *256:A 3.15282e-05
6 P[3] *27:19 6.76337e-05
*RES
1 *256:X P[3] 19.1624 
*END

*D_NET *13 0.000580904
*CONN
*P P[4] O
*I *257:X O *D sky130_fd_sc_hd__buf_2
*CAP
1 P[4] 0.000225799
2 *257:X 0.000225799
3 P[4] P[5] 0
4 P[4] *257:A 3.38578e-05
5 P[3] P[4] 9.54485e-05
*RES
1 *257:X P[4] 18.8021 
*END

*D_NET *14 0.000633914
*CONN
*P P[5] O
*I *258:X O *D sky130_fd_sc_hd__buf_2
*CAP
1 P[5] 0.000316957
2 *258:X 0.000316957
3 P[5] *258:A 0
4 P[4] P[5] 0
*RES
1 *258:X P[5] 19.4092 
*END

*D_NET *15 0.00127895
*CONN
*P P[6] O
*I *259:X O *D sky130_fd_sc_hd__buf_2
*CAP
1 P[6] 0.00062626
2 *259:X 0.00062626
3 P[6] *242:A_N 3.69047e-06
4 P[6] *259:A 2.27416e-05
*RES
1 *259:X P[6] 25.0321 
*END

*D_NET *16 0.000951893
*CONN
*P P[7] O
*I *260:X O *D sky130_fd_sc_hd__buf_2
*CAP
1 P[7] 0.000475946
2 *260:X 0.000475946
*RES
1 *260:X P[7] 23.2643 
*END

*D_NET *19 0.00132814
*CONN
*I *206:A I *D sky130_fd_sc_hd__or4b_1
*I *192:A2 I *D sky130_fd_sc_hd__a31o_1
*I *187:Y O *D sky130_fd_sc_hd__inv_2
*CAP
1 *206:A 0.000287872
2 *192:A2 0.000184373
3 *187:Y 6.73231e-05
4 *19:8 0.000539568
5 *192:A2 *194:A2 1.76039e-05
6 *192:A2 *206:D_N 0
7 *192:A2 *207:A 0
8 *192:A2 *22:47 7.06079e-05
9 *192:A2 *78:77 0
10 *206:A *206:C 6.24558e-05
11 *206:A *207:A 0
12 *206:A *36:10 0
13 *19:8 *207:A 9.83388e-05
*RES
1 *187:Y *19:8 14.7464 
2 *19:8 *192:A2 16.9607 
3 *19:8 *206:A 18.4071 
*END

*D_NET *20 0.000270952
*CONN
*I *213:A1 I *D sky130_fd_sc_hd__a211oi_1
*I *188:Y O *D sky130_fd_sc_hd__inv_2
*CAP
1 *213:A1 2.99628e-05
2 *188:Y 2.99628e-05
3 *213:A1 *212:B 1.74352e-05
4 *213:A1 *213:A2 5.17614e-05
5 *213:A1 *40:8 0.00014183
*RES
1 *188:Y *213:A1 19.9571 
*END

*D_NET *21 0.00236901
*CONN
*I *227:A1 I *D sky130_fd_sc_hd__a211o_1
*I *225:A2 I *D sky130_fd_sc_hd__a31oi_1
*I *206:B I *D sky130_fd_sc_hd__or4b_1
*I *189:Y O *D sky130_fd_sc_hd__inv_2
*CAP
1 *227:A1 4.48046e-05
2 *225:A2 0.000250692
3 *206:B 0.000469247
4 *189:Y 0
5 *21:19 0.000418002
6 *21:6 0.000591753
7 *206:B *79:10 0
8 *206:B *83:32 3.92854e-05
9 *225:A2 *225:B1 4.72938e-06
10 *225:A2 *79:40 7.71367e-05
11 *225:A2 *79:51 6.57193e-05
12 *225:A2 *79:64 0.000129515
13 *225:A2 *80:70 3.02246e-05
14 *227:A1 *227:B1 9.25014e-06
15 *227:A1 *79:64 5.52238e-05
16 *227:A1 *80:53 0
17 *227:A1 *80:70 5.52238e-05
18 *227:A1 *83:32 2.16719e-05
19 *21:19 *79:10 0
20 *21:19 *83:32 0.000106533
*RES
1 *189:Y *21:6 13.8 
2 *21:6 *206:B 19.4786 
3 *21:6 *21:19 2.55357 
4 *21:19 *225:A2 17.7643 
5 *21:19 *227:A1 15.0679 
*END

*D_NET *22 0.00485665
*CONN
*I *214:B I *D sky130_fd_sc_hd__and3_1
*I *217:A2 I *D sky130_fd_sc_hd__a21o_1
*I *194:A2 I *D sky130_fd_sc_hd__a21oi_1
*I *192:B1 I *D sky130_fd_sc_hd__a31o_1
*I *195:A_N I *D sky130_fd_sc_hd__and3b_1
*I *190:X O *D sky130_fd_sc_hd__and3_1
*CAP
1 *214:B 0.000247705
2 *217:A2 0
3 *194:A2 0.00022534
4 *192:B1 7.1984e-05
5 *195:A_N 0
6 *190:X 9.87452e-05
7 *22:47 0.000424774
8 *22:30 0.000402409
9 *22:19 0.000276849
10 *22:10 0.000303611
11 *192:B1 *210:C 0
12 *192:B1 *81:55 2.07878e-05
13 *192:B1 *81:72 4.78664e-05
14 *192:B1 *83:22 0.000183022
15 *194:A2 *192:A3 0.000123295
16 *194:A2 *78:6 2.89114e-05
17 *194:A2 *78:25 3.1367e-05
18 *194:A2 *81:72 0
19 *194:A2 *82:47 5.03772e-05
20 *214:B *214:C 0.000125093
21 *214:B *26:10 9.84648e-05
22 *214:B *46:10 0.00024381
23 *22:10 *195:B 4.15914e-05
24 *22:10 *70:77 0
25 *22:10 *78:36 0
26 *22:10 *83:10 2.56601e-05
27 *22:19 *261:A 5.65955e-05
28 *22:19 *78:40 0.000449546
29 *22:19 *81:72 6.7228e-05
30 *22:19 *83:22 0.000320413
31 *22:19 *83:91 5.41494e-05
32 *22:47 *26:10 0.000400676
33 *22:47 *78:77 0.00031407
34 P[0] *194:A2 3.41021e-05
35 *192:A2 *194:A2 1.76039e-05
36 *192:A2 *22:47 7.06079e-05
*RES
1 *190:X *22:10 20.2464 
2 *22:10 *195:A_N 9.3 
3 *22:10 *22:19 7.53571 
4 *22:19 *192:B1 11.4964 
5 *22:19 *22:30 4.5 
6 *22:30 *194:A2 17.9071 
7 *22:30 *22:47 10.2679 
8 *22:47 *217:A2 9.3 
9 *22:47 *214:B 15.6393 
*END

*D_NET *23 0.000665726
*CONN
*I *192:A3 I *D sky130_fd_sc_hd__a31o_1
*I *191:X O *D sky130_fd_sc_hd__or2_1
*CAP
1 *192:A3 0.000162327
2 *191:X 0.000162327
3 *192:A3 *82:47 0.000141132
4 P[0] *192:A3 7.6644e-05
5 *194:A2 *192:A3 0.000123295
*RES
1 *191:X *192:A3 30.6 
*END

*D_NET *24 0.000713502
*CONN
*I *194:B1 I *D sky130_fd_sc_hd__a21oi_1
*I *193:Y O *D sky130_fd_sc_hd__a22oi_1
*CAP
1 *194:B1 0.000139522
2 *193:Y 0.000139522
3 *194:B1 *190:A 5.30637e-06
4 *194:B1 *193:A1 0
5 *194:B1 *193:B1 0
6 *194:B1 *254:A 6.77431e-05
7 *194:B1 *78:25 0.000175881
8 *194:B1 *78:36 2.84269e-05
9 *194:B1 *81:72 1.74352e-05
10 *194:B1 *82:47 0.000116905
11 P[1] *194:B1 2.27601e-05
*RES
1 *193:Y *194:B1 22.4571 
*END

*D_NET *25 0.00123109
*CONN
*I *197:C I *D sky130_fd_sc_hd__and3_1
*I *198:A I *D sky130_fd_sc_hd__xnor2_1
*I *195:X O *D sky130_fd_sc_hd__and3b_1
*CAP
1 *197:C 0.000116494
2 *198:A 5.26674e-05
3 *195:X 0.000241241
4 *25:12 0.000410402
5 *197:C *27:10 3.05446e-05
6 *25:12 *198:B 0.000225616
7 *25:12 *214:A 0
8 *25:12 *26:10 5.33005e-05
9 *25:12 *70:77 0.000100823
*RES
1 *195:X *25:12 23.4607 
2 *25:12 *198:A 10.8179 
3 *25:12 *197:C 11.3357 
*END

*D_NET *26 0.00424936
*CONN
*I *198:B I *D sky130_fd_sc_hd__xnor2_1
*I *206:D_N I *D sky130_fd_sc_hd__or4b_1
*I *200:C I *D sky130_fd_sc_hd__and3_1
*I *196:Y O *D sky130_fd_sc_hd__nand2_1
*CAP
1 *198:B 0.000221564
2 *206:D_N 0.00027659
3 *200:C 2.01231e-05
4 *196:Y 0
5 *26:10 0.00107445
6 *26:4 0.000999296
7 *198:B *196:B 1.43e-05
8 *198:B *197:B 0
9 *200:C *200:A 3.99846e-05
10 *206:D_N *201:A 3.17163e-05
11 *206:D_N *78:92 3.12359e-05
12 *206:D_N *82:28 3.79047e-05
13 *206:D_N *82:78 5.69689e-05
14 *206:D_N *84:62 5.0725e-05
15 *26:10 *200:A 5.33005e-05
16 *26:10 *214:C 0.000227582
17 *26:10 *217:A1 0.000142856
18 *26:10 *78:77 0.000106803
19 *26:10 *78:79 8.59075e-05
20 *192:A2 *206:D_N 0
21 *214:B *26:10 9.84648e-05
22 *22:47 *26:10 0.000400676
23 *25:12 *198:B 0.000225616
24 *25:12 *26:10 5.33005e-05
*RES
1 *196:Y *26:4 9.3 
2 *26:4 *26:10 13.8214 
3 *26:10 *200:C 9.69286 
4 *26:10 *206:D_N 23.2821 
5 *26:4 *198:B 21.5143 
*END

*D_NET *27 0.00180053
*CONN
*I *235:A1 I *D sky130_fd_sc_hd__a31o_1
*I *223:A I *D sky130_fd_sc_hd__nand2_1
*I *244:A I *D sky130_fd_sc_hd__or2_1
*I *197:X O *D sky130_fd_sc_hd__and3_1
*CAP
1 *235:A1 0.000223067
2 *223:A 3.72884e-05
3 *244:A 0
4 *197:X 0.000280511
5 *27:19 0.000356138
6 *27:10 0.000376294
7 *235:A1 *220:B 0
8 *235:A1 *224:A 0.000136414
9 *235:A1 *224:B 7.57869e-05
10 *235:A1 *256:A 2.8266e-06
11 *235:A1 *257:A 0
12 *235:A1 *50:14 3.76337e-05
13 *27:10 *51:10 1.19402e-05
14 *27:19 *224:B 4.81157e-05
15 *27:19 *245:A 6.75007e-05
16 *27:19 *256:A 3.28916e-05
17 *27:19 *51:10 1.5942e-05
18 P[3] *27:19 6.76337e-05
19 *197:C *27:10 3.05446e-05
*RES
1 *197:X *27:10 18.5143 
2 *27:10 *244:A 13.8 
3 *27:10 *27:19 3.16071 
4 *27:19 *223:A 14.3357 
5 *27:19 *235:A1 18.3536 
*END

*D_NET *28 0.00172041
*CONN
*I *209:A I *D sky130_fd_sc_hd__xor2_1
*I *208:A I *D sky130_fd_sc_hd__or2_1
*I *237:C I *D sky130_fd_sc_hd__and3_1
*I *199:Y O *D sky130_fd_sc_hd__nand2_1
*CAP
1 *209:A 0
2 *208:A 0.000251369
3 *237:C 0
4 *199:Y 7.84664e-05
5 *28:23 0.000394174
6 *28:12 0.000221271
7 *208:A *208:B 8.66063e-05
8 *208:A *209:B 0.000133207
9 *208:A *237:A 1.17091e-05
10 *208:A *38:6 3.61629e-06
11 *208:A *38:10 3.18676e-05
12 *28:12 *199:A 9.91224e-05
13 *28:12 *237:A 0.000124245
14 *28:12 *237:B 0.000103817
15 *28:12 *84:79 7.6997e-05
16 *28:23 *237:A 8.99112e-05
17 *28:23 *237:B 1.40292e-05
*RES
1 *199:Y *28:12 20.8536 
2 *28:12 *237:C 9.3 
3 *28:12 *28:23 2.875 
4 *28:23 *208:A 13.4607 
5 *28:23 *209:A 9.3 
*END

*D_NET *29 0.00107821
*CONN
*I *207:A I *D sky130_fd_sc_hd__xor2_1
*I *200:X O *D sky130_fd_sc_hd__and3_1
*CAP
1 *207:A 0.000307056
2 *200:X 0.000307056
3 *207:A *200:A 6.05161e-06
4 *207:A *78:77 0.000314839
5 *207:A *78:79 4.4873e-05
6 *192:A2 *207:A 0
7 *206:A *207:A 0
8 *19:8 *207:A 9.83388e-05
*RES
1 *200:X *207:A 33.6714 
*END

*D_NET *30 0.00045199
*CONN
*I *205:A0 I *D sky130_fd_sc_hd__mux2_1
*I *201:Y O *D sky130_fd_sc_hd__nand2_1
*CAP
1 *205:A0 0.000163728
2 *201:Y 0.000163728
3 *205:A0 *205:A1 2.16988e-05
4 *205:A0 *205:S 9.90367e-05
5 *205:A0 *45:12 3.79877e-06
*RES
1 *201:Y *205:A0 20.7786 
*END

*D_NET *31 0.00111722
*CONN
*I *216:A1 I *D sky130_fd_sc_hd__a21oi_1
*I *202:Y O *D sky130_fd_sc_hd__nand2_1
*CAP
1 *216:A1 0.000309397
2 *202:Y 0.000309397
3 *216:A1 *202:A 5.33005e-05
4 *216:A1 *202:B 0.000115305
5 *216:A1 *203:A 0.000110665
6 *216:A1 *203:C 9.50968e-06
7 *216:A1 *215:B1 0.0001399
8 *216:A1 *216:A2 6.97494e-05
*RES
1 *202:Y *216:A1 25.0643 
*END

*D_NET *32 0.00210407
*CONN
*I *205:S I *D sky130_fd_sc_hd__mux2_1
*I *216:B1 I *D sky130_fd_sc_hd__a21oi_1
*I *204:B I *D sky130_fd_sc_hd__and2_1
*I *203:X O *D sky130_fd_sc_hd__and3_1
*CAP
1 *205:S 0.000287908
2 *216:B1 0
3 *204:B 0.000108324
4 *203:X 4.98842e-05
5 *32:27 0.00069475
6 *32:10 0.00056505
7 *204:B *33:12 2.27416e-05
8 *205:S *201:B 0.00013949
9 *205:S *205:A1 3.86475e-05
10 *205:S *45:12 1.57414e-05
11 *32:10 *80:10 7.83587e-05
12 *32:10 *82:14 4.1331e-06
13 *32:27 *215:B1 0
14 *32:27 *83:32 0
15 *205:A0 *205:S 9.90367e-05
*RES
1 *203:X *32:10 19.3357 
2 *32:10 *204:B 11.3893 
3 *32:10 *32:27 13.75 
4 *32:27 *216:B1 9.3 
5 *32:27 *205:S 15.0857 
*END

*D_NET *33 0.000998184
*CONN
*I *228:A I *D sky130_fd_sc_hd__nand2_1
*I *229:A I *D sky130_fd_sc_hd__xnor2_1
*I *204:X O *D sky130_fd_sc_hd__and2_1
*CAP
1 *228:A 0
2 *229:A 0.000103679
3 *204:X 0.000178349
4 *33:12 0.000282028
5 *229:A *228:B 0.000128496
6 *229:A *229:B 5.52238e-05
7 *33:12 *40:16 0.000116535
8 *33:12 *80:10 3.34672e-05
9 *33:12 *80:53 7.76647e-05
10 *204:B *33:12 2.27416e-05
*RES
1 *204:X *33:12 22.9071 
2 *33:12 *229:A 11.4786 
3 *33:12 *228:A 9.3 
*END

*D_NET *34 0.000694739
*CONN
*I *207:B I *D sky130_fd_sc_hd__xor2_1
*I *206:C I *D sky130_fd_sc_hd__or4b_1
*I *205:X O *D sky130_fd_sc_hd__mux2_1
*CAP
1 *207:B 8.7311e-05
2 *206:C 0.000195638
3 *205:X 0
4 *34:4 0.000282949
5 *206:C *45:12 1.13532e-05
6 *206:C *84:62 0
7 *207:B *45:12 5.50313e-05
8 *206:A *206:C 6.24558e-05
*RES
1 *205:X *34:4 9.3 
2 *34:4 *206:C 21.3 
3 *34:4 *207:B 11.2821 
*END

*D_NET *35 0.00177657
*CONN
*I *231:A I *D sky130_fd_sc_hd__and3_1
*I *232:A I *D sky130_fd_sc_hd__nand3_1
*I *233:A1 I *D sky130_fd_sc_hd__a21oi_1
*I *206:X O *D sky130_fd_sc_hd__or4b_1
*CAP
1 *231:A 3.79096e-05
2 *232:A 0
3 *233:A1 3.14876e-05
4 *206:X 0.000431771
5 *35:23 0.000137972
6 *35:8 0.000563322
7 *231:A *231:C 2.78576e-05
8 *231:A *58:15 6.05161e-06
9 *231:A *66:6 5.65955e-05
10 *233:A1 *233:B1 5.65955e-05
11 *233:A1 *37:12 5.65955e-05
12 *233:A1 *37:18 5.49544e-05
13 *35:8 *199:A 5.40447e-05
14 *35:8 *227:C1 0
15 *35:8 *241:A1 0
16 *35:8 *36:10 0
17 *35:8 *37:18 3.34366e-05
18 *35:8 *61:10 0
19 *35:8 *64:12 0
20 *35:8 *84:62 0
21 *35:23 *231:B 9.25014e-06
22 *35:23 *233:B1 7.83587e-05
23 *35:23 *241:B1 0
24 *35:23 *37:18 0.000140368
25 *35:23 *61:10 0
*RES
1 *206:X *35:8 20.9071 
2 *35:8 *233:A1 14.7464 
3 *35:8 *35:23 6.98214 
4 *35:23 *232:A 9.3 
5 *35:23 *231:A 10.2643 
*END

*D_NET *36 0.00123507
*CONN
*I *208:B I *D sky130_fd_sc_hd__or2_1
*I *209:B I *D sky130_fd_sc_hd__xor2_1
*I *207:X O *D sky130_fd_sc_hd__xor2_1
*CAP
1 *208:B 2.66008e-05
2 *209:B 6.76616e-05
3 *207:X 0.000404719
4 *36:10 0.000498982
5 *208:B *38:6 1.72894e-05
6 *36:10 *219:B1 0
7 *36:10 *45:12 0
8 *36:10 *48:10 0
9 *206:A *36:10 0
10 *208:A *208:B 8.66063e-05
11 *208:A *209:B 0.000133207
12 *35:8 *36:10 0
*RES
1 *207:X *36:10 25.4071 
2 *36:10 *209:B 10.9786 
3 *36:10 *208:B 10.2464 
*END

*D_NET *37 0.00268198
*CONN
*I *233:A2 I *D sky130_fd_sc_hd__a21oi_1
*I *231:B I *D sky130_fd_sc_hd__and3_1
*I *232:B I *D sky130_fd_sc_hd__nand3_1
*I *208:X O *D sky130_fd_sc_hd__or2_1
*CAP
1 *233:A2 0
2 *231:B 0.000211173
3 *232:B 2.04426e-05
4 *208:X 0.000196839
5 *37:18 0.000372287
6 *37:12 0.000337509
7 *231:B *60:12 0.000143375
8 *231:B *66:6 4.56405e-05
9 *232:B *58:15 2.59355e-05
10 *232:B *66:6 5.33005e-05
11 *37:12 *233:B1 4.73286e-05
12 *37:12 *241:A1 5.03694e-05
13 *37:12 *241:A2 0.000150618
14 *37:12 *243:B1 0.000515684
15 *37:12 *61:18 0.000119135
16 *37:18 *243:B1 9.77414e-05
17 *37:18 *64:12 0
18 *233:A1 *37:12 5.65955e-05
19 *233:A1 *37:18 5.49544e-05
20 *35:8 *37:18 3.34366e-05
21 *35:23 *231:B 9.25014e-06
22 *35:23 *37:18 0.000140368
*RES
1 *208:X *37:12 25.3 
2 *37:12 *37:18 7.69643 
3 *37:18 *232:B 14.3357 
4 *37:18 *231:B 17.0143 
5 *37:12 *233:A2 9.3 
*END

*D_NET *38 0.001557
*CONN
*I *241:A1 I *D sky130_fd_sc_hd__a311o_1
*I *220:A I *D sky130_fd_sc_hd__and2_1
*I *221:A I *D sky130_fd_sc_hd__xor2_1
*I *209:X O *D sky130_fd_sc_hd__xor2_1
*CAP
1 *241:A1 0.000189847
2 *220:A 5.39253e-05
3 *221:A 0
4 *209:X 6.98857e-05
5 *38:10 0.000242157
6 *38:6 0.000447965
7 *220:A *220:B 0.000219064
8 *220:A *240:A1 1.74352e-05
9 *220:A *50:14 5.71472e-05
10 *241:A1 *241:A2 0
11 *241:A1 *241:B1 5.01213e-05
12 *241:A1 *61:10 5.10822e-05
13 *38:10 *220:B 5.52302e-05
14 *208:A *38:6 3.61629e-06
15 *208:A *38:10 3.18676e-05
16 *208:B *38:6 1.72894e-05
17 *35:8 *241:A1 0
18 *37:12 *241:A1 5.03694e-05
*RES
1 *209:X *38:6 10.2464 
2 *38:6 *38:10 3.625 
3 *38:10 *221:A 9.3 
4 *38:10 *220:A 11.4786 
5 *38:6 *241:A1 22.0679 
*END

*D_NET *39 0.000914932
*CONN
*I *213:A2 I *D sky130_fd_sc_hd__a211oi_1
*I *210:Y O *D sky130_fd_sc_hd__nand3b_1
*CAP
1 *213:A2 0.000178728
2 *210:Y 0.000178728
3 *213:A2 *211:A 3.18676e-05
4 *213:A2 *212:B 0.000139907
5 *213:A2 *40:8 1.42782e-05
6 *213:A2 *70:14 4.18895e-05
7 *213:A2 *70:16 0.000230482
8 *213:A2 *83:26 4.72917e-05
9 *213:A1 *213:A2 5.17614e-05
*RES
1 *210:Y *213:A2 23.6714 
*END

*D_NET *40 0.00336136
*CONN
*I *213:B1 I *D sky130_fd_sc_hd__a211oi_1
*I *228:B I *D sky130_fd_sc_hd__nand2_1
*I *229:B I *D sky130_fd_sc_hd__xnor2_1
*I *211:X O *D sky130_fd_sc_hd__and4_1
*CAP
1 *213:B1 0
2 *228:B 0.000108814
3 *229:B 2.52229e-05
4 *211:X 0.000250458
5 *40:16 0.000823132
6 *40:8 0.000939554
7 *228:B *57:12 3.18676e-05
8 *228:B *80:70 3.57366e-05
9 *40:8 *212:B 2.24763e-05
10 *40:8 *70:16 2.89114e-05
11 *40:16 *212:A_N 0.000177941
12 *40:16 *212:B 4.88637e-05
13 *40:16 *213:C1 0.00010096
14 *40:16 *42:18 0
15 *40:16 *80:10 0
16 *40:16 *81:20 0.000150618
17 *40:16 *82:14 0.000146334
18 *40:16 *82:22 1.41029e-05
19 *213:A1 *40:8 0.00014183
20 *213:A2 *40:8 1.42782e-05
21 *229:A *228:B 0.000128496
22 *229:A *229:B 5.52238e-05
23 *248:A *40:16 0
24 *249:A *40:16 0
25 *251:A *40:16 0
26 *33:12 *40:16 0.000116535
*RES
1 *211:X *40:8 13.0321 
2 *40:8 *40:16 24.2679 
3 *40:16 *229:B 9.83571 
4 *40:16 *228:B 11.9071 
5 *40:8 *213:B1 9.3 
*END

*D_NET *41 0.000224162
*CONN
*I *213:C1 I *D sky130_fd_sc_hd__a211oi_1
*I *212:X O *D sky130_fd_sc_hd__and2b_1
*CAP
1 *213:C1 1.1121e-05
2 *212:X 1.1121e-05
3 *213:C1 *212:B 0.00010096
4 *40:16 *213:C1 0.00010096
*RES
1 *212:X *213:C1 19.5464 
*END

*D_NET *42 0.0043475
*CONN
*I *217:B1 I *D sky130_fd_sc_hd__a21o_1
*I *214:C I *D sky130_fd_sc_hd__and3_1
*I *213:Y O *D sky130_fd_sc_hd__a211oi_1
*CAP
1 *217:B1 0
2 *214:C 4.73615e-05
3 *213:Y 0.00195005
4 *42:18 0.00199741
5 *42:18 *70:55 0
6 *42:18 *78:77 0
7 *42:18 *81:10 0
8 *214:B *214:C 0.000125093
9 *26:10 *214:C 0.000227582
10 *40:16 *42:18 0
*RES
1 *213:Y *42:18 31.0318 
2 *42:18 *214:C 11.7643 
3 *42:18 *217:B1 9.3 
*END

*D_NET *43 0.000884252
*CONN
*I *218:A_N I *D sky130_fd_sc_hd__nand2b_1
*I *219:B1 I *D sky130_fd_sc_hd__a21o_1
*I *214:X O *D sky130_fd_sc_hd__and3_1
*CAP
1 *218:A_N 5.68661e-05
2 *219:B1 0.00020916
3 *214:X 7.43444e-05
4 *43:10 0.000340371
5 *219:B1 *219:A2 0
6 *219:B1 *45:12 0.000104215
7 *43:10 *45:12 4.35131e-05
8 *43:10 *46:10 5.5782e-05
9 *36:10 *219:B1 0
*RES
1 *214:X *43:10 20.2464 
2 *43:10 *219:B1 22.3179 
3 *43:10 *218:A_N 10.2464 
*END

*D_NET *44 0.000690821
*CONN
*I *216:A2 I *D sky130_fd_sc_hd__a21oi_1
*I *215:Y O *D sky130_fd_sc_hd__o21ai_1
*CAP
1 *216:A2 0.000120154
2 *215:Y 0.000120154
3 *216:A2 *201:B 0.000150539
4 *216:A2 *203:A 3.31648e-05
5 *216:A2 *215:B1 0.00014183
6 *216:A2 *80:31 5.52302e-05
7 *216:A1 *216:A2 6.97494e-05
*RES
1 *215:Y *216:A2 22.3321 
*END

*D_NET *45 0.00355851
*CONN
*I *222:A I *D sky130_fd_sc_hd__xnor2_1
*I *219:A1 I *D sky130_fd_sc_hd__a21o_1
*I *216:Y O *D sky130_fd_sc_hd__a21oi_1
*CAP
1 *222:A 0.000140332
2 *219:A1 0
3 *216:Y 0.00117302
4 *45:12 0.00131335
5 *222:A *219:A2 9.90367e-05
6 *222:A *48:10 1.32552e-05
7 *45:12 *201:B 0.000360894
8 *45:12 *205:A1 0.000182645
9 *45:12 *219:A2 4.23215e-05
10 *205:A0 *45:12 3.79877e-06
11 *205:S *45:12 1.57414e-05
12 *206:C *45:12 1.13532e-05
13 *207:B *45:12 5.50313e-05
14 *219:B1 *45:12 0.000104215
15 *36:10 *45:12 0
16 *43:10 *45:12 4.35131e-05
*RES
1 *216:Y *45:12 34.5321 
2 *45:12 *219:A1 9.3 
3 *45:12 *222:A 11.925 
*END

*D_NET *46 0.00125193
*CONN
*I *219:A2 I *D sky130_fd_sc_hd__a21o_1
*I *218:B I *D sky130_fd_sc_hd__nand2b_1
*I *217:X O *D sky130_fd_sc_hd__a21o_1
*CAP
1 *219:A2 0.000185135
2 *218:B 7.90914e-06
3 *217:X 0.000174548
4 *46:10 0.000367592
5 *218:B *222:B 6.26774e-06
6 *219:A2 *222:B 6.42242e-05
7 *219:A2 *48:10 5.30637e-06
8 *214:B *46:10 0.00024381
9 *219:B1 *219:A2 0
10 *222:A *219:A2 9.90367e-05
11 *43:10 *46:10 5.5782e-05
12 *45:12 *219:A2 4.23215e-05
*RES
1 *217:X *46:10 17.8179 
2 *46:10 *218:B 13.9295 
3 *46:10 *219:A2 18.0679 
*END

*D_NET *47 0.000518175
*CONN
*I *222:B I *D sky130_fd_sc_hd__xnor2_1
*I *218:Y O *D sky130_fd_sc_hd__nand2b_1
*CAP
1 *222:B 0.000223841
2 *218:Y 0.000223841
3 *218:B *222:B 6.26774e-06
4 *219:A2 *222:B 6.42242e-05
*RES
1 *218:Y *222:B 30.9036 
*END

*D_NET *48 0.00258057
*CONN
*I *221:B I *D sky130_fd_sc_hd__xor2_1
*I *241:A2 I *D sky130_fd_sc_hd__a311o_1
*I *220:B I *D sky130_fd_sc_hd__and2_1
*I *219:X O *D sky130_fd_sc_hd__a21o_1
*CAP
1 *221:B 0
2 *241:A2 0.000282648
3 *220:B 0.000177267
4 *219:X 0.000406476
5 *48:23 0.000322002
6 *48:10 0.000623097
7 *220:B *50:14 5.92869e-05
8 *241:A2 *234:A 0.00014285
9 *241:A2 *240:A1 0
10 *241:A2 *240:B1 2.44318e-05
11 *241:A2 *240:C1 9.90367e-05
12 *219:A2 *48:10 5.30637e-06
13 *220:A *220:B 0.000219064
14 *222:A *48:10 1.32552e-05
15 *235:A1 *220:B 0
16 *241:A1 *241:A2 0
17 *36:10 *48:10 0
18 *37:12 *241:A2 0.000150618
19 *38:10 *220:B 5.52302e-05
*RES
1 *219:X *48:10 19.7464 
2 *48:10 *220:B 17.6393 
3 *48:10 *48:23 0.732143 
4 *48:23 *241:A2 20.0679 
5 *48:23 *221:B 13.8 
*END

*D_NET *49 0.0014784
*CONN
*I *235:B1 I *D sky130_fd_sc_hd__a31o_1
*I *240:A1 I *D sky130_fd_sc_hd__o211a_1
*I *220:X O *D sky130_fd_sc_hd__and2_1
*CAP
1 *235:B1 0.000160473
2 *240:A1 0.000376376
3 *220:X 0
4 *49:4 0.000536849
5 *235:B1 *224:B 0
6 *235:B1 *235:A3 4.1331e-06
7 *235:B1 *50:14 5.84656e-05
8 *240:A1 *240:A2 5.59013e-05
9 *240:A1 *242:A_N 1.59782e-05
10 *240:A1 *243:B1 5.35423e-05
11 *240:A1 *50:14 0.000122598
12 *240:A1 *61:18 7.6644e-05
13 *220:A *240:A1 1.74352e-05
14 *241:A2 *240:A1 0
*RES
1 *220:X *49:4 9.3 
2 *49:4 *240:A1 24.9607 
3 *49:4 *235:B1 20.6929 
*END

*D_NET *50 0.00117053
*CONN
*I *224:A I *D sky130_fd_sc_hd__xnor2_1
*I *235:A2 I *D sky130_fd_sc_hd__a31o_1
*I *221:X O *D sky130_fd_sc_hd__xor2_1
*CAP
1 *224:A 0.000127823
2 *235:A2 0
3 *221:X 0.00017119
4 *50:14 0.000299014
5 *224:A *224:B 0.00010096
6 *220:A *50:14 5.71472e-05
7 *220:B *50:14 5.92869e-05
8 *235:A1 *224:A 0.000136414
9 *235:A1 *50:14 3.76337e-05
10 *235:B1 *50:14 5.84656e-05
11 *240:A1 *50:14 0.000122598
*RES
1 *221:X *50:14 14.6393 
2 *50:14 *235:A2 9.3 
3 *50:14 *224:A 12.4429 
*END

*D_NET *51 0.00166465
*CONN
*I *244:B I *D sky130_fd_sc_hd__or2_1
*I *235:A3 I *D sky130_fd_sc_hd__a31o_1
*I *223:B I *D sky130_fd_sc_hd__nand2_1
*I *222:Y O *D sky130_fd_sc_hd__xnor2_1
*CAP
1 *244:B 6.18886e-05
2 *235:A3 8.94207e-05
3 *223:B 0
4 *222:Y 0.00032926
5 *51:10 0.000231626
6 *51:6 0.000533354
7 *235:A3 *224:B 0.000177234
8 *244:B *245:A 5.30637e-06
9 *51:10 *224:B 7.46814e-05
10 *51:10 *245:A 0.000129868
11 *235:B1 *235:A3 4.1331e-06
12 *27:10 *51:10 1.19402e-05
13 *27:19 *51:10 1.5942e-05
*RES
1 *222:Y *51:6 13.1214 
2 *51:6 *51:10 7.96429 
3 *51:10 *223:B 13.8 
4 *51:10 *235:A3 16.05 
5 *51:6 *244:B 10.2643 
*END

*D_NET *52 0.001661
*CONN
*I *224:B I *D sky130_fd_sc_hd__xnor2_1
*I *245:A I *D sky130_fd_sc_hd__and2_1
*I *223:Y O *D sky130_fd_sc_hd__nand2_1
*CAP
1 *224:B 0.000171974
2 *245:A 0.000246411
3 *223:Y 0
4 *52:6 0.000418385
5 *245:A *245:B 0.000144773
6 *224:A *224:B 0.00010096
7 *235:A1 *224:B 7.57869e-05
8 *235:A3 *224:B 0.000177234
9 *235:B1 *224:B 0
10 *244:B *245:A 5.30637e-06
11 *27:19 *224:B 4.81157e-05
12 *27:19 *245:A 6.75007e-05
13 *51:10 *224:B 7.46814e-05
14 *51:10 *245:A 0.000129868
*RES
1 *223:Y *52:6 13.8 
2 *52:6 *245:A 19.2643 
3 *52:6 *224:B 18.7464 
*END

*D_NET *53 0.000748169
*CONN
*I *227:B1 I *D sky130_fd_sc_hd__a211o_1
*I *225:Y O *D sky130_fd_sc_hd__a31oi_1
*CAP
1 *227:B1 8.48936e-05
2 *225:Y 8.48936e-05
3 *227:B1 *225:A1 0.000184745
4 *227:B1 *55:12 5.71472e-05
5 *227:B1 *80:70 0.000271345
6 *227:B1 *83:32 5.58941e-05
7 *227:A1 *227:B1 9.25014e-06
*RES
1 *225:Y *227:B1 30.9214 
*END

*D_NET *54 0.00147276
*CONN
*I *243:C1 I *D sky130_fd_sc_hd__a211o_1
*I *227:C1 I *D sky130_fd_sc_hd__a211o_1
*I *226:X O *D sky130_fd_sc_hd__and4_1
*CAP
1 *243:C1 0.000168976
2 *227:C1 0.000119188
3 *226:X 0
4 *54:6 0.000288163
5 *227:C1 *64:12 5.80706e-06
6 *227:C1 *79:64 0.000230482
7 *227:C1 *80:70 0.000228558
8 *227:C1 *83:32 0
9 *243:C1 *239:B 9.90367e-05
10 *243:C1 *243:A1 9.90367e-05
11 *243:C1 *243:B1 6.95205e-05
12 *243:C1 *64:12 0.000163989
13 *35:8 *227:C1 0
*RES
1 *226:X *54:6 13.8 
2 *54:6 *227:C1 17.0143 
3 *54:6 *243:C1 18.8179 
*END

*D_NET *55 0.00147076
*CONN
*I *230:A I *D sky130_fd_sc_hd__xnor2_1
*I *238:A1 I *D sky130_fd_sc_hd__o21ai_1
*I *227:X O *D sky130_fd_sc_hd__a211o_1
*CAP
1 *230:A 0
2 *238:A1 0.000140623
3 *227:X 0.000303626
4 *55:12 0.000444249
5 *238:A1 *230:B 0.000149693
6 *238:A1 *65:10 0.000140933
7 *55:12 *238:B1 0.000116535
8 *55:12 *80:70 0.000117956
9 *227:B1 *55:12 5.71472e-05
*RES
1 *227:X *55:12 24.1393 
2 *55:12 *238:A1 12.8714 
3 *55:12 *230:A 9.3 
*END

*D_NET *56 0.000574299
*CONN
*I *238:B1 I *D sky130_fd_sc_hd__o21ai_1
*I *228:Y O *D sky130_fd_sc_hd__nand2_1
*CAP
1 *238:B1 0.000143616
2 *228:Y 0.000143616
3 *238:B1 *57:12 0.000170532
4 *55:12 *238:B1 0.000116535
*RES
1 *228:Y *238:B1 31.975 
*END

*D_NET *57 0.0010425
*CONN
*I *230:B I *D sky130_fd_sc_hd__xnor2_1
*I *238:A2 I *D sky130_fd_sc_hd__o21ai_1
*I *229:Y O *D sky130_fd_sc_hd__xnor2_1
*CAP
1 *230:B 0.000124634
2 *238:A2 0
3 *229:Y 0.000220571
4 *57:12 0.000345205
5 *228:B *57:12 3.18676e-05
6 *238:A1 *230:B 0.000149693
7 *238:B1 *57:12 0.000170532
*RES
1 *229:Y *57:12 22.9071 
2 *57:12 *238:A2 9.3 
3 *57:12 *230:B 12.6036 
*END

*D_NET *58 0.00276807
*CONN
*I *231:C I *D sky130_fd_sc_hd__and3_1
*I *233:B1 I *D sky130_fd_sc_hd__a21oi_1
*I *232:C I *D sky130_fd_sc_hd__nand3_1
*I *230:Y O *D sky130_fd_sc_hd__xnor2_1
*CAP
1 *231:C 0.000107615
2 *233:B1 0.000169862
3 *232:C 2.22994e-05
4 *230:Y 0.00058104
5 *58:15 0.000386693
6 *58:6 0.000712555
7 *231:C *66:6 3.21678e-05
8 *232:C *243:A1 0
9 *58:6 *239:B 1.21289e-05
10 *58:6 *243:A1 0.000312215
11 *58:6 *65:10 0.000129595
12 *58:6 *66:6 3.67252e-05
13 *58:15 *66:6 2.30502e-05
14 *231:A *231:C 2.78576e-05