*SPEF "ieee 1481-1999"
*DESIGN "mult4_SarsaNStepsRuido_e9_SARSA_RUIDO_e9_SARSA_RUIDO_e9_SARSA_RUIDO_e9"
*DATE "11:55:31 Wednesday September 17, 2025"
*VENDOR "The OpenROAD Project"
*PROGRAM "OpenROAD"
*VERSION "edf00dff99f6c40d67a30c0e22a8191c5d2ed9d6"
*DESIGN_FLOW "NAME_SCOPE LOCAL" "PIN_CAP NONE"
*DIVIDER /
*DELIMITER :
*BUS_DELIMITER []
*T_UNIT 1 NS
*C_UNIT 1 PF
*R_UNIT 1 OHM
*L_UNIT 1 HENRY

*NAME_MAP
*1 A[0]
*2 A[1]
*3 A[2]
*4 A[3]
*5 B[0]
*6 B[1]
*7 B[2]
*8 B[3]
*9 net16
*10 P[1]
*11 P[2]
*12 P[3]
*13 P[4]
*14 P[5]
*15 P[6]
*16 P[7]
*19 _000_
*20 _001_
*21 _002_
*22 _003_
*23 _004_
*24 _005_
*25 _006_
*26 _007_
*27 _008_
*28 _009_
*29 _010_
*30 _011_
*31 _012_
*32 _013_
*33 _014_
*34 _015_
*35 _016_
*36 _017_
*37 _018_
*38 _019_
*39 _020_
*40 _021_
*41 _022_
*42 _023_
*43 _024_
*44 _025_
*45 _026_
*46 _027_
*47 _028_
*48 _029_
*49 _030_
*50 _031_
*51 _032_
*52 _033_
*53 _034_
*54 _035_
*55 _036_
*56 _037_
*57 _038_
*58 _039_
*59 _040_
*60 _041_
*61 _042_
*62 _043_
*63 _044_
*64 _045_
*65 _046_
*66 _047_
*67 _048_
*68 _049_
*69 _050_
*70 _051_
*71 _052_
*72 _053_
*73 _054_
*74 _055_
*75 _056_
*76 _057_
*77 net1
*78 net10
*79 net11
*80 net12
*81 net13
*82 net14
*83 net15
*84 net2
*85 net3
*86 net4
*87 net5
*88 net6
*89 net7
*90 net8
*91 net9
*92 FILLER_0_16
*93 FILLER_0_20
*94 FILLER_0_29
*95 FILLER_0_41
*96 FILLER_0_50
*97 FILLER_0_57
*98 FILLER_0_69
*99 FILLER_0_7
*100 FILLER_1_19
*101 FILLER_1_3
*102 FILLER_1_39
*103 FILLER_1_50
*104 FILLER_1_55
*105 FILLER_1_62
*106 FILLER_1_74
*107 FILLER_2_18
*108 FILLER_2_27
*109 FILLER_2_29
*110 FILLER_2_41
*111 FILLER_2_50
*112 FILLER_2_62
*113 FILLER_2_71
*114 FILLER_3_3
*115 FILLER_3_40
*116 FILLER_3_49
*117 FILLER_3_55
*118 FILLER_3_57
*119 FILLER_3_63
*120 FILLER_3_73
*121 FILLER_3_79
*122 FILLER_4_13
*123 FILLER_4_20
*124 FILLER_4_29
*125 FILLER_4_41
*126 FILLER_4_53
*127 FILLER_4_62
*128 FILLER_4_70
*129 FILLER_4_76
*130 FILLER_5_19
*131 FILLER_5_23
*132 FILLER_5_41
*133 FILLER_5_45
*134 FILLER_5_57
*135 FILLER_5_63
*136 FILLER_5_69
*137 FILLER_6_26
*138 FILLER_6_29
*139 FILLER_6_44
*140 FILLER_6_58
*141 FILLER_6_76
*142 FILLER_7_10
*143 FILLER_7_14
*144 FILLER_7_19
*145 FILLER_7_3
*146 FILLER_7_37
*147 FILLER_7_46
*148 FILLER_7_50
*149 FILLER_7_55
*150 FILLER_7_57
*151 FILLER_7_69
*152 FILLER_8_27
*153 FILLER_8_29
*154 FILLER_8_48
*155 FILLER_8_7
*156 FILLER_8_70
*157 FILLER_8_78
*158 FILLER_9_10
*159 FILLER_9_22
*160 FILLER_9_29
*161 FILLER_9_38
*162 FILLER_9_50
*163 FILLER_9_57
*164 FILLER_9_63
*165 FILLER_9_75
*166 PHY_EDGE_ROW_0_Left_10
*167 PHY_EDGE_ROW_0_Right_0
*168 PHY_EDGE_ROW_1_Left_11
*169 PHY_EDGE_ROW_1_Right_1
*170 PHY_EDGE_ROW_2_Left_12
*171 PHY_EDGE_ROW_2_Right_2
*172 PHY_EDGE_ROW_3_Left_13
*173 PHY_EDGE_ROW_3_Right_3
*174 PHY_EDGE_ROW_4_Left_14
*175 PHY_EDGE_ROW_4_Right_4
*176 PHY_EDGE_ROW_5_Left_15
*177 PHY_EDGE_ROW_5_Right_5
*178 PHY_EDGE_ROW_6_Left_16
*179 PHY_EDGE_ROW_6_Right_6
*180 PHY_EDGE_ROW_7_Left_17
*181 PHY_EDGE_ROW_7_Right_7
*182 PHY_EDGE_ROW_8_Left_18
*183 PHY_EDGE_ROW_8_Right_8
*184 PHY_EDGE_ROW_9_Left_19
*185 PHY_EDGE_ROW_9_Right_9
*186 TAP_TAPCELL_ROW_0_20
*187 TAP_TAPCELL_ROW_0_21
*188 TAP_TAPCELL_ROW_1_22
*189 TAP_TAPCELL_ROW_2_23
*190 TAP_TAPCELL_ROW_3_24
*191 TAP_TAPCELL_ROW_4_25
*192 TAP_TAPCELL_ROW_5_26
*193 TAP_TAPCELL_ROW_6_27
*194 TAP_TAPCELL_ROW_7_28
*195 TAP_TAPCELL_ROW_8_29
*196 TAP_TAPCELL_ROW_9_30
*197 TAP_TAPCELL_ROW_9_31
*198 _058_
*199 _059_
*200 _060_
*201 _061_
*202 _062_
*203 _063_
*204 _064_
*205 _065_
*206 _066_
*207 _067_
*208 _068_
*209 _069_
*210 _070_
*211 _071_
*212 _072_
*213 _073_
*214 _074_
*215 _075_
*216 _076_
*217 _077_
*218 _078_
*219 _079_
*220 _080_
*221 _081_
*222 _082_
*223 _083_
*224 _084_
*225 _085_
*226 _086_
*227 _087_
*228 _088_
*229 _089_
*230 _090_
*231 _091_
*232 _092_
*233 _093_
*234 _094_
*235 _095_
*236 _096_
*237 _097_
*238 _098_
*239 _099_
*240 _100_
*241 _101_
*242 _102_
*243 _103_
*244 _104_
*245 _105_
*246 _106_
*247 _107_
*248 _108_
*249 _109_
*250 _110_
*251 _111_
*252 _112_
*253 _113_
*254 _114_
*255 _115_
*256 _116_
*257 _117_
*258 _118_
*259 _119_
*260 _120_
*261 _121_
*262 _122_
*263 input1
*264 input2
*265 input3
*266 input4
*267 input5
*268 input6
*269 input7
*270 input8
*271 mult4_SarsaNStepsRuido_e9_SARSA_RUIDO_e9_SARSA_RUIDO_e9_SARSA_RUIDO_e9_16
*272 output10
*273 output11
*274 output12
*275 output13
*276 output14
*277 output15
*278 output9

*PORTS
A[0] I
A[1] I
A[2] I
A[3] I
B[0] I
B[1] I
B[2] I
B[3] I
P[0] O
P[1] O
P[2] O
P[3] O
P[4] O
P[5] O
P[6] O
P[7] O

*D_NET *1 0.000595152
*CONN
*P A[0] I
*I *263:A I *D sky130_fd_sc_hd__dlymetal6s2s_1
*CAP
1 A[0] 0.000268504
2 *263:A 0.000268504
3 *263:A *223:C 0
4 *263:A *267:A 2.96366e-05
5 *263:A *269:A 0
6 *263:A *270:A 2.85068e-05
*RES
1 A[0] *263:A 7.3443 
*END

*D_NET *2 0.000804009
*CONN
*P A[1] I
*I *264:A I *D sky130_fd_sc_hd__clkbuf_2
*CAP
1 A[1] 0.00038549
2 *264:A 0.00038549
3 *264:A *268:A 3.30292e-05
4 *264:A *84:30 0
*RES
1 A[1] *264:A 8.9643 
*END

*D_NET *3 0.000590999
*CONN
*P A[2] I
*I *265:A I *D sky130_fd_sc_hd__clkbuf_2
*CAP
1 A[2] 0.000279795
2 *265:A 0.000279795
3 *265:A *266:A 3.14094e-05
*RES
1 A[2] *265:A 7.1793 
*END

*D_NET *4 0.000872365
*CONN
*P A[3] I
*I *266:A I *D sky130_fd_sc_hd__buf_1
*CAP
1 A[3] 0.000356061
2 *266:A 0.000356061
3 *266:A *240:A3 0.000106344
4 *266:A *269:A 2.24901e-05
5 *266:A *270:A 0
6 *266:A *85:10 0
7 *265:A *266:A 3.14094e-05
*RES
1 A[3] *266:A 6.86483 
*END

*D_NET *5 0.000645751
*CONN
*P B[0] I
*I *267:A I *D sky130_fd_sc_hd__dlymetal6s2s_1
*CAP
1 B[0] 0.000297298
2 *267:A 0.000297298
3 *267:A *268:A 2.15176e-05
4 *267:A *84:41 0
5 *263:A *267:A 2.96366e-05
*RES
1 B[0] *267:A 7.8543 
*END

*D_NET *6 0.00061011
*CONN
*P B[1] I
*I *268:A I *D sky130_fd_sc_hd__dlymetal6s2s_1
*CAP
1 B[1] 0.000277782
2 *268:A 0.000277782
3 *264:A *268:A 3.30292e-05
4 *267:A *268:A 2.15176e-05
*RES
1 B[1] *268:A 7.3443 
*END

*D_NET *7 0.000678513
*CONN
*P B[2] I
*I *269:A I *D sky130_fd_sc_hd__buf_1
*CAP
1 B[2] 0.000312307
2 *269:A 0.000312307
3 *269:A *270:A 3.14094e-05
4 *263:A *269:A 0
5 *266:A *269:A 2.24901e-05
*RES
1 B[2] *269:A 8.1093 
*END

*D_NET *8 0.00122031
*CONN
*P B[3] I
*I *270:A I *D sky130_fd_sc_hd__clkbuf_2
*CAP
1 B[3] 0.000408304
2 *270:A 0.000408304
3 *270:A *223:C 4.36738e-05
4 *270:A *20:10 0
5 *270:A *90:8 0.000110683
6 *270:A *90:14 0.000189426
7 *263:A *270:A 2.85068e-05
8 *266:A *270:A 0
9 *269:A *270:A 3.14094e-05
*RES
1 B[3] *270:A 9.24003 
*END

*D_NET *9 0.000423734
*CONN
*P P[0] O
*I *271:LO O *D sky130_fd_sc_hd__conb_1
*CAP
1 P[0] 0.000173345
2 *271:LO 0.000173345
3 P[0] P[3] 7.70436e-05
*RES
1 *271:LO P[0] 4.84677 
*END

*D_NET *10 0.000882482
*CONN
*P P[1] O
*I *278:X O *D sky130_fd_sc_hd__buf_2
*CAP
1 P[1] 0.000435803
2 *278:X 0.000435803
3 P[1] *208:A 1.08758e-05
*RES
1 *278:X P[1] 10.53 
*END

*D_NET *11 0.000904014
*CONN
*P P[2] O
*I *272:X O *D sky130_fd_sc_hd__buf_2
*CAP
1 P[2] 0.000427861
2 *272:X 0.000427861
3 P[2] *272:A 4.82919e-05
*RES
1 *272:X P[2] 10.53 
*END

*D_NET *12 0.000501278
*CONN
*P P[3] O
*I *273:X O *D sky130_fd_sc_hd__buf_2
*CAP
1 P[3] 0.000165843
2 *273:X 0.000165843
3 P[3] P[4] 9.25475e-05
4 P[0] P[3] 7.70436e-05
*RES
1 *273:X P[3] 5.16003 
*END

*D_NET *13 0.000636686
*CONN
*P P[4] O
*I *274:X O *D sky130_fd_sc_hd__buf_2
*CAP
1 P[4] 0.000217746
2 *274:X 0.000217746
3 P[4] P[5] 0
4 P[4] *274:A 0.000108647
5 P[3] P[4] 9.25475e-05
*RES
1 *274:X P[4] 5.92503 
*END

*D_NET *14 0.00045292
*CONN
*P P[5] O
*I *275:X O *D sky130_fd_sc_hd__buf_2
*CAP
1 P[5] 0.00022646
2 *275:X 0.00022646
3 P[5] P[6] 0
4 P[5] *253:A 0
5 P[4] P[5] 0
*RES
1 *275:X P[5] 4.90503 
*END

*D_NET *15 0.000600147
*CONN
*P P[6] O
*I *276:X O *D sky130_fd_sc_hd__buf_2
*CAP
1 P[6] 0.000280743
2 *276:X 0.000280743
3 P[6] *276:A 3.86607e-05
4 P[5] P[6] 0
*RES
1 *276:X P[6] 5.92503 
*END

*D_NET *16 0.00085605
*CONN
*P P[7] O
*I *277:X O *D sky130_fd_sc_hd__buf_2
*CAP
1 P[7] 0.000428025
2 *277:X 0.000428025
*RES
1 *277:X P[7] 11.205 
*END

*D_NET *19 0.000834753
*CONN
*I *226:A1 I *D sky130_fd_sc_hd__a211o_1
*I *198:Y O *D sky130_fd_sc_hd__inv_2
*CAP
1 *226:A1 0.000315829
2 *198:Y 0.000315829
3 *226:A1 *206:A 2.0514e-05
4 *226:A1 *206:B 0.000119762
5 *226:A1 *219:B1 0
6 *226:A1 *226:A2 9.50342e-06
7 *226:A1 *84:64 5.33172e-05
8 *226:A1 *86:33 0
*RES
1 *198:Y *226:A1 11.445 
*END

*D_NET *20 0.00158586
*CONN
*I *242:A1 I *D sky130_fd_sc_hd__a211o_1
*I *240:A2 I *D sky130_fd_sc_hd__a31oi_1
*I *199:Y O *D sky130_fd_sc_hd__inv_2
*CAP
1 *242:A1 0.000106055
2 *240:A2 9.27985e-05
3 *199:Y 0.00010105
4 *20:10 0.000299903
5 *240:A2 *240:A1 8.40213e-05
6 *240:A2 *85:25 4.66108e-05
7 *242:A1 *240:A1 4.69504e-05
8 *242:A1 *242:A2 0.000280264
9 *242:A1 *242:B1 6.93045e-05
10 *242:A1 *260:B1 3.23663e-05
11 *242:A1 *85:25 0.000130131
12 *242:A1 *89:57 0.000174081
13 *20:10 *240:B1 4.9968e-05
14 *20:10 *241:B 7.23533e-05
15 *20:10 *85:29 0
16 *20:10 *90:8 0
17 *270:A *20:10 0
*RES
1 *199:Y *20:10 7.49 
2 *20:10 *240:A2 3.355 
3 *20:10 *242:A1 6.325 
*END

*D_NET *21 0.00146828
*CONN
*I *207:B I *D sky130_fd_sc_hd__nand2_1
*I *209:S I *D sky130_fd_sc_hd__mux2_1
*I *201:A I *D sky130_fd_sc_hd__inv_2
*I *200:X O *D sky130_fd_sc_hd__and3_1
*CAP
1 *207:B 0.000177722
2 *209:S 0
3 *201:A 3.38389e-05
4 *200:X 2.03083e-05
5 *21:19 0.000359564
6 *21:6 0.00023599
7 *201:A *84:12 4.00541e-06
8 *207:B *208:B 6.75724e-05
9 *207:B *209:A0 3.25831e-05
10 *207:B *230:A1 2.97004e-06
11 *207:B *50:14 4.99619e-05
12 *207:B *88:19 0
13 *207:B *88:58 0
14 *21:6 *203:B1 1.16578e-05
15 *21:6 *208:A 2.11084e-05
16 *21:19 *203:B1 4.99619e-05
17 *21:19 *208:A 0.000108357
18 *21:19 *208:B 0.000166768
19 *21:19 *209:A0 0.000117825
20 *21:19 *278:A 8.09021e-06
*RES
1 *200:X *21:6 2.05 
2 *21:6 *201:A 2.215 
3 *21:6 *21:19 6.5 
4 *21:19 *209:S 3.6 
5 *21:19 *207:B 6.885 
*END

*D_NET *22 0.000372033
*CONN
*I *203:B1 I *D sky130_fd_sc_hd__o211a_1
*I *201:Y O *D sky130_fd_sc_hd__inv_2
*CAP
1 *203:B1 0.000155207
2 *201:Y 0.000155207
3 *203:B1 *200:B 0
4 *203:B1 *208:B 0
5 *203:B1 *87:14 0
6 *21:6 *203:B1 1.16578e-05
7 *21:19 *203:B1 4.99619e-05
*RES
1 *201:Y *203:B1 9.285 
*END

*D_NET *23 8.68287e-05
*CONN
*I *203:C1 I *D sky130_fd_sc_hd__o211a_1
*I *202:X O *D sky130_fd_sc_hd__a21o_1
*CAP
1 *203:C1 1.84334e-05
2 *202:X 1.84334e-05
3 *203:C1 *203:A1 4.99619e-05
*RES
1 *202:X *203:C1 3.65 
*END

*D_NET *24 0.00468442
*CONN
*I *243:A I *D sky130_fd_sc_hd__and3_1
*I *218:A I *D sky130_fd_sc_hd__or4bb_1
*I *244:A1 I *D sky130_fd_sc_hd__a21o_1
*I *213:A I *D sky130_fd_sc_hd__nor2_1
*I *212:A I *D sky130_fd_sc_hd__and2_1
*I *204:X O *D sky130_fd_sc_hd__and2_1
*CAP
1 *243:A 8.866e-05
2 *218:A 0
3 *244:A1 0.000287924
4 *213:A 9.42561e-05
5 *212:A 0
6 *204:X 0.000432825
7 *24:38 0.000319826
8 *24:34 0.000334394
9 *24:18 0.000354066
10 *24:12 0.000906467
11 *213:A *213:B 0.000113847
12 *213:A *236:A1 5.4155e-06
13 *213:A *30:6 4.60584e-05
14 *213:A *31:10 8.64421e-05
15 *213:A *32:6 0.000124895
16 *213:A *32:19 1.08758e-05
17 *243:A *216:A 0
18 *243:A *218:B 0.00010596
19 *243:A *221:B 0
20 *244:A1 *216:A 6.88421e-05
21 *244:A1 *218:B 5.83121e-06
22 *244:A1 *220:B 1.46828e-05
23 *244:A1 *243:C 7.20899e-05
24 *244:A1 *26:36 9.84114e-05
25 *244:A1 *36:10 2.56752e-06
26 *244:A1 *36:21 1.87062e-05
27 *244:A1 *43:15 8.51862e-05
28 *24:12 *217:B 0.000124007
29 *24:12 *227:A 5.64231e-05
30 *24:12 *227:B 7.67415e-06
31 *24:12 *36:10 5.062e-06
32 *24:12 *45:14 3.00381e-05
33 *24:12 *46:6 4.82863e-05
34 *24:12 *47:8 0.000152357
35 *24:18 *26:36 0.000149757
36 *24:18 *31:10 8.52883e-05
37 *24:34 *218:B 7.5416e-05
38 *24:34 *26:36 0.000175867
39 *24:38 *218:B 1.19928e-05
40 *24:38 *220:B 8.40213e-05
*RES
1 *204:X *24:12 9.69 
2 *24:12 *24:18 6.725 
3 *24:18 *212:A 1.6 
4 *24:18 *213:A 4.48 
5 *24:12 *24:34 4.695 
6 *24:34 *24:38 2.795 
7 *24:38 *244:A1 10.22 
8 *24:38 *218:A 1.6 
9 *24:34 *243:A 5.235 
*END

*D_NET *25 0.000612143
*CONN
*I *219:B2 I *D sky130_fd_sc_hd__a32o_1
*I *205:Y O *D sky130_fd_sc_hd__nand2_1
*CAP
1 *219:B2 0.000291052
2 *205:Y 0.000291052
3 *219:B2 *45:14 0
4 *219:B2 *86:33 0
5 *219:B2 *87:56 3.00381e-05
*RES
1 *205:Y *219:B2 10.755 
*END

*D_NET *26 0.00351245
*CONN
*I *210:A I *D sky130_fd_sc_hd__nor2_1
*I *211:A I *D sky130_fd_sc_hd__xor2_1
*I *218:D_N I *D sky130_fd_sc_hd__or4bb_1
*I *219:A3 I *D sky130_fd_sc_hd__a32o_1
*I *206:Y O *D sky130_fd_sc_hd__nand2_1
*CAP
1 *210:A 0
2 *211:A 7.49398e-05
3 *218:D_N 0
4 *219:A3 0
5 *206:Y 0.000368698
6 *26:36 0.000626383
7 *26:15 0.000626064
8 *26:8 0.000443318
9 *211:A *210:B 0.000199496
10 *26:8 *216:A 8.58339e-06
11 *26:8 *219:B1 9.4988e-06
12 *26:8 *84:64 0.000280721
13 *26:15 *216:A 4.21973e-05
14 *26:15 *218:C_N 4.77757e-05
15 *26:15 *220:B 0.000122699
16 *26:36 *210:B 1.57281e-05
17 *26:36 *218:B 5.18444e-05
18 *26:36 *220:B 0.000121027
19 *26:36 *30:6 4.94474e-05
20 *26:36 *45:14 0
21 *244:A1 *26:36 9.84114e-05
22 *24:18 *26:36 0.000149757
23 *24:34 *26:36 0.000175867
*RES
1 *206:Y *26:8 6.715 
2 *26:8 *219:A3 1.6 
3 *26:8 *26:15 1.83 
4 *26:15 *218:D_N 1.6 
5 *26:15 *26:36 14.86 
6 *26:36 *211:A 3.43 
7 *26:36 *210:A 1.6 
*END

*D_NET *27 0.00116505
*CONN
*I *227:A I *D sky130_fd_sc_hd__nor2_1
*I *228:A I *D sky130_fd_sc_hd__xnor2_1
*I *207:Y O *D sky130_fd_sc_hd__nand2_1
*CAP
1 *227:A 4.22048e-05
2 *228:A 0
3 *207:Y 0.000298338
4 *27:12 0.000340542
5 *227:A *227:B 0.000197826
6 *227:A *47:8 4.89295e-05
7 *27:12 *217:A 0
8 *27:12 *45:14 1.71013e-05
9 *27:12 *50:14 0.000163682
10 *24:12 *227:A 5.64231e-05
*RES
1 *207:Y *27:12 9.755 
2 *27:12 *228:A 1.6 
3 *27:12 *227:A 3.43 
*END

*D_NET *28 0.000437139
*CONN
*I *209:A0 I *D sky130_fd_sc_hd__mux2_1
*I *208:Y O *D sky130_fd_sc_hd__nand2_1
*CAP
1 *209:A0 8.28454e-05
2 *208:Y 8.28454e-05
3 *209:A0 *278:A 7.04879e-05
4 *209:A0 *88:47 2.75229e-05
5 *209:A0 *88:58 2.30292e-05
6 *207:B *209:A0 3.25831e-05
7 *21:19 *209:A0 0.000117825
*RES
1 *208:Y *209:A0 9.63 
*END

*D_NET *29 0.000783543
*CONN
*I *210:B I *D sky130_fd_sc_hd__nor2_1
*I *211:B I *D sky130_fd_sc_hd__xor2_1
*I *209:X O *D sky130_fd_sc_hd__mux2_1
*CAP
1 *210:B 0.000115244
2 *211:B 0
3 *209:X 7.56493e-05
4 *29:8 0.000190894
5 *210:B *30:6 2.937e-05
6 *210:B *31:10 0.000157162
7 *211:A *210:B 0.000199496
8 *26:36 *210:B 1.57281e-05
*RES
1 *209:X *29:8 2.755 
2 *29:8 *211:B 1.6 
3 *29:8 *210:B 4.825 
*END

*D_NET *30 0.00152132
*CONN
*I *261:A I *D sky130_fd_sc_hd__or3_1
*I *236:A1 I *D sky130_fd_sc_hd__o21ai_1
*I *210:Y O *D sky130_fd_sc_hd__nor2_1
*CAP
1 *261:A 0.000100391
2 *236:A1 1.88809e-05
3 *210:Y 0.00024352
4 *30:6 0.000362792
5 *236:A1 *261:C 0
6 *261:A *261:B 3.23663e-05
7 *261:A *261:C 8.31156e-05
8 *261:A *32:19 1.61831e-05
9 *261:A *55:14 0.00016862
10 *30:6 *213:B 0.000125264
11 *30:6 *31:10 0.000208982
12 *30:6 *32:19 3.09179e-05
13 *210:B *30:6 2.937e-05
14 *213:A *236:A1 5.4155e-06
15 *213:A *30:6 4.60584e-05
16 *26:36 *30:6 4.94474e-05
*RES
1 *210:Y *30:6 6.535 
2 *30:6 *236:A1 1.96 
3 *30:6 *261:A 4.48 
*END

*D_NET *31 0.00110215
*CONN
*I *213:B I *D sky130_fd_sc_hd__nor2_1
*I *212:B I *D sky130_fd_sc_hd__and2_1
*I *211:X O *D sky130_fd_sc_hd__xor2_1
*CAP
1 *213:B 1.53349e-05
2 *212:B 0
3 *211:X 0.000147246
4 *31:10 0.000162581
5 *210:B *31:10 0.000157162
6 *213:A *213:B 0.000113847
7 *213:A *31:10 8.64421e-05
8 *24:18 *31:10 8.52883e-05
9 *30:6 *213:B 0.000125264
10 *30:6 *31:10 0.000208982
*RES
1 *211:X *31:10 5.53 
2 *31:10 *212:B 1.6 
3 *31:10 *213:B 2.74 
*END

*D_NET *32 0.00106243
*CONN
*I *261:B I *D sky130_fd_sc_hd__or3_1
*I *236:A2 I *D sky130_fd_sc_hd__o21ai_1
*I *214:A I *D sky130_fd_sc_hd__nor2_1
*I *212:X O *D sky130_fd_sc_hd__and2_1
*CAP
1 *261:B 0.000109079
2 *236:A2 0
3 *214:A 8.9661e-05
4 *212:X 6.16152e-05
5 *32:19 0.000168614
6 *32:6 0.000210811
7 *214:A *214:B 8.08439e-05
8 *261:B *261:C 0.00012657
9 *213:A *32:6 0.000124895
10 *213:A *32:19 1.08758e-05
11 *261:A *261:B 3.23663e-05
12 *261:A *32:19 1.61831e-05
13 *30:6 *32:19 3.09179e-05
*RES
1 *212:X *32:6 2.74 
2 *32:6 *214:A 7.49 
3 *32:6 *32:19 1.14 
4 *32:19 *236:A2 1.6 
5 *32:19 *261:B 3.79 
*END

*D_NET *33 0.000221381
*CONN
*I *214:B I *D sky130_fd_sc_hd__nor2_1
*I *213:Y O *D sky130_fd_sc_hd__nor2_1
*CAP
1 *214:B 7.02686e-05
2 *213:Y 7.02686e-05
3 *214:A *214:B 8.08439e-05
*RES
1 *213:Y *214:B 8.835 
*END

*D_NET *34 0.00326624
*CONN
*I *221:A I *D sky130_fd_sc_hd__or2_1
*I *222:A I *D sky130_fd_sc_hd__xor2_1
*I *254:C I *D sky130_fd_sc_hd__and3_1
*I *215:Y O *D sky130_fd_sc_hd__nand2_1
*CAP
1 *221:A 0
2 *222:A 9.34947e-05
3 *254:C 0
4 *215:Y 0.00031842
5 *34:21 0.00073805
6 *34:6 0.000962974
7 *222:A *220:A 1.7396e-05
8 *222:A *220:B 8.40213e-05
9 *222:A *221:B 0.00013521
10 *222:A *250:A1 1.01661e-05
11 *222:A *37:19 3.38982e-05
12 *222:A *39:6 4.82919e-05
13 *34:6 *226:A2 6.36494e-05
14 *34:6 *254:A 4.82863e-05
15 *34:6 *254:B 2.24519e-05
16 *34:6 *89:49 4.9253e-06
17 *34:21 *245:A_N 4.77719e-05
18 *34:21 *245:B 1.75336e-05
19 *34:21 *249:C 0
20 *34:21 *250:A1 3.04982e-05
21 *34:21 *250:A2 0.000143266
22 *34:21 *257:B 0.000200988
23 *34:21 *61:21 0.000200198
24 *34:21 *71:8 4.47487e-05
*RES
1 *215:Y *34:6 5.56 
2 *34:6 *254:C 1.6 
3 *34:6 *34:21 12.41 
4 *34:21 *222:A 6.285 
5 *34:21 *221:A 3.6 
*END

*D_NET *35 0.000712321
*CONN
*I *218:B I *D sky130_fd_sc_hd__or4bb_1
*I *216:Y O *D sky130_fd_sc_hd__nand2_1
*CAP
1 *218:B 0.000207828
2 *216:Y 0.000207828
3 *218:B *216:A 4.56204e-05
4 *243:A *218:B 0.00010596
5 *244:A1 *218:B 5.83121e-06
6 *24:34 *218:B 7.5416e-05
7 *24:38 *218:B 1.19928e-05
8 *26:36 *218:B 5.18444e-05
*RES
1 *216:Y *218:B 10.59 
*END

*D_NET *36 0.00255189
*CONN
*I *243:B I *D sky130_fd_sc_hd__and3_1
*I *244:A2 I *D sky130_fd_sc_hd__a21o_1
*I *219:B1 I *D sky130_fd_sc_hd__a32o_1
*I *218:C_N I *D sky130_fd_sc_hd__or4bb_1
*I *217:X O *D sky130_fd_sc_hd__and2_1
*CAP
1 *243:B 0.000227414
2 *244:A2 0
3 *219:B1 0.00015918
4 *218:C_N 2.44385e-05
5 *217:X 0.000245134
6 *36:25 0.000189977
7 *36:21 0.000366878
8 *36:10 0.000378239
9 *219:B1 *219:A2 6.63913e-05
10 *219:B1 *226:A2 4.18603e-06
11 *219:B1 *43:15 0.000160641
12 *219:B1 *84:64 2.09749e-05
13 *219:B1 *86:33 0
14 *219:B1 *90:58 4.80285e-05
15 *219:B1 *90:60 5.38986e-06
16 *243:B *216:A 1.6725e-05
17 *243:B *243:C 1.06624e-05
18 *243:B *245:B 2.20014e-05
19 *243:B *254:A 0
20 *243:B *43:15 1.06688e-05
21 *243:B *61:12 8.52845e-05
22 *243:B *90:60 0
23 *36:10 *227:B 4.94457e-05
24 *36:10 *45:14 0.000181176
25 *36:21 *216:A 5.23914e-05
26 *36:21 *219:A2 0
27 *36:21 *45:14 6.81237e-05
28 *36:25 *43:15 7.49327e-05
29 *226:A1 *219:B1 0
30 *244:A1 *36:10 2.56752e-06
31 *244:A1 *36:21 1.87062e-05
32 *24:12 *36:10 5.062e-06
33 *26:8 *219:B1 9.4988e-06
34 *26:15 *218:C_N 4.77757e-05
*RES
1 *217:X *36:10 8.16 
2 *36:10 *218:C_N 4.05 
3 *36:10 *36:21 2.145 
4 *36:21 *36:25 2.795 
5 *36:25 *219:B1 9.1775 
6 *36:25 *244:A2 1.6 
7 *36:21 *243:B 6.645 
*END

*D_NET *37 0.00194603
*CONN
*I *250:A1 I *D sky130_fd_sc_hd__a21oi_1
*I *249:A I *D sky130_fd_sc_hd__and3_1
*I *220:A I *D sky130_fd_sc_hd__nand2_1
*I *218:X O *D sky130_fd_sc_hd__or4bb_1
*CAP
1 *250:A1 8.26977e-05
2 *249:A 0
3 *220:A 3.56328e-05
4 *218:X 0.000332717
5 *37:19 0.000136324
6 *37:8 0.000421976
7 *250:A1 *249:C 0.000231557
8 *250:A1 *250:A2 7.89689e-05
9 *250:A1 *257:B 2.75145e-05
10 *37:8 *220:B 0.000497177
11 *37:19 *249:C 9.50342e-06
12 *37:19 *251:A 0
13 *222:A *220:A 1.7396e-05
14 *222:A *250:A1 1.01661e-05
15 *222:A *37:19 3.38982e-05
16 *34:21 *250:A1 3.04982e-05
*RES
1 *218:X *37:8 8.19 
2 *37:8 *220:A 4.215 
3 *37:8 *37:19 1.125 
4 *37:19 *249:A 3.6 
5 *37:19 *250:A1 6.705 
*END

*D_NET *38 0.00182889
*CONN
*I *220:B I *D sky130_fd_sc_hd__nand2_1
*I *219:X O *D sky130_fd_sc_hd__a32o_1
*CAP
1 *220:B 0.000337134
2 *219:X 0.000337134
3 *220:B *216:A 0.000122699
4 *220:B *39:6 9.21168e-05
5 *220:B *41:10 1.61831e-05
6 *222:A *220:B 8.40213e-05
7 *244:A1 *220:B 1.46828e-05
8 *24:38 *220:B 8.40213e-05
9 *26:15 *220:B 0.000122699
10 *26:36 *220:B 0.000121027
11 *37:8 *220:B 0.000497177
*RES
1 *219:X *220:B 11.945 
*END

*D_NET *39 0.000762738
*CONN
*I *222:B I *D sky130_fd_sc_hd__xor2_1
*I *221:B I *D sky130_fd_sc_hd__or2_1
*I *220:Y O *D sky130_fd_sc_hd__nand2_1
*CAP
1 *222:B 0
2 *221:B 0.000141153
3 *220:Y 5.82741e-05
4 *39:6 0.000199427
5 *39:6 *41:10 8.8266e-05
6 *220:B *39:6 9.21168e-05
7 *222:A *221:B 0.00013521
8 *222:A *39:6 4.82919e-05
9 *243:A *221:B 0
*RES
1 *220:Y *39:6 3.43 
2 *39:6 *221:B 7.94 
3 *39:6 *222:B 1.6 
*END

*D_NET *40 0.000604298
*CONN
*I *249:B I *D sky130_fd_sc_hd__and3_1
*I *250:A2 I *D sky130_fd_sc_hd__a21oi_1
*I *221:X O *D sky130_fd_sc_hd__or2_1
*CAP
1 *249:B 0.000103704
2 *250:A2 8.01286e-05
3 *221:X 0
4 *40:4 0.000183832
5 *249:B *249:C 1.4399e-05
6 *250:A1 *250:A2 7.89689e-05
7 *34:21 *250:A2 0.000143266
*RES
1 *221:X *40:4 1.6 
2 *40:4 *250:A2 7.685 
3 *40:4 *249:B 2.74 
*END

*D_NET *41 0.0011133
*CONN
*I *234:B1 I *D sky130_fd_sc_hd__o21a_1
*I *233:A I *D sky130_fd_sc_hd__nor3_1
*I *222:X O *D sky130_fd_sc_hd__xor2_1
*CAP
1 *234:B1 0
2 *233:A 0.000169734
3 *222:X 0.000274134
4 *41:10 0.000443868
5 *233:A *233:B 1.33293e-05
6 *233:A *233:C 4.9253e-06
7 *233:A *234:A2 6.74079e-05
8 *233:A *237:A 5.4155e-06
9 *233:A *252:A1 0
10 *233:A *52:8 3.00381e-05
11 *41:10 *252:A1 0
12 *41:10 *70:10 0
13 *220:B *41:10 1.61831e-05
14 *39:6 *41:10 8.8266e-05
*RES
1 *222:X *41:10 8.01 
2 *41:10 *233:A 6.48 
3 *41:10 *234:B1 3.6 
*END

*D_NET *42 0.00127531
*CONN
*I *226:A2 I *D sky130_fd_sc_hd__a211o_1
*I *223:Y O *D sky130_fd_sc_hd__nand3b_1
*CAP
1 *226:A2 0.000329765
2 *223:Y 0.000329765
3 *226:A2 *223:B 0.000191419
4 *226:A2 *254:A 0
5 *226:A2 *254:B 0.000238137
6 *226:A2 *86:33 0
7 *226:A2 *89:49 0.000108886
8 *226:A2 *90:60 0
9 *219:B1 *226:A2 4.18603e-06
10 *226:A1 *226:A2 9.50342e-06
11 *34:6 *226:A2 6.36494e-05
*RES
1 *223:Y *226:A2 14.025 
*END

*D_NET *43 0.00156079
*CONN
*I *243:C I *D sky130_fd_sc_hd__and3_1
*I *244:B1 I *D sky130_fd_sc_hd__a21o_1
*I *226:B1 I *D sky130_fd_sc_hd__a211o_1
*I *224:X O *D sky130_fd_sc_hd__and4_1
*CAP
1 *243:C 6.92691e-05
2 *244:B1 2.21004e-05
3 *226:B1 1.49415e-05
4 *224:X 4.04921e-05
5 *43:15 0.000259013
6 *43:6 0.000223077
7 *226:B1 *226:C1 1.37328e-05
8 *243:C *216:A 0.000150006
9 *43:6 *226:C1 4.99619e-05
10 *43:6 *90:58 1.61831e-05
11 *43:15 *45:14 0.000196376
12 *43:15 *90:58 9.14601e-05
13 *219:B1 *43:15 0.000160641
14 *243:B *243:C 1.06624e-05
15 *243:B *43:15 1.06688e-05
16 *244:A1 *243:C 7.20899e-05
17 *244:A1 *43:15 8.51862e-05
18 *36:25 *43:15 7.49327e-05
*RES
1 *224:X *43:6 2.395 
2 *43:6 *226:B1 1.96 
3 *43:6 *43:15 4.59 
4 *43:15 *244:B1 1.96 
5 *43:15 *243:C 3.3325 
*END

*D_NET *44 0.000633884
*CONN
*I *226:C1 I *D sky130_fd_sc_hd__a211o_1
*I *225:X O *D sky130_fd_sc_hd__and2b_1
*CAP
1 *226:C1 0.00021247
2 *225:X 0.00021247
3 *226:C1 *224:D 9.53428e-06
4 *226:C1 *90:23 3.51939e-05
5 *226:C1 *90:47 4.16262e-05
6 *226:C1 *90:58 5.88949e-05
7 *226:B1 *226:C1 1.37328e-05
8 *43:6 *226:C1 4.99619e-05
*RES
1 *225:X *226:C1 6.995 
*END

*D_NET *45 0.00209954
*CONN
*I *227:B I *D sky130_fd_sc_hd__nor2_1
*I *228:B I *D sky130_fd_sc_hd__xnor2_1
*I *226:X O *D sky130_fd_sc_hd__a211o_1
*CAP
1 *227:B 0.000182757
2 *228:B 0
3 *226:X 0.000437109
4 *45:14 0.000619866
5 *227:B *217:B 0
6 *227:B *47:8 6.26111e-05
7 *45:14 *217:A 0
8 *45:14 *219:A2 4.94326e-05
9 *219:B2 *45:14 0
10 *227:A *227:B 0.000197826
11 *24:12 *227:B 7.67415e-06
12 *24:12 *45:14 3.00381e-05
13 *26:36 *45:14 0
14 *27:12 *45:14 1.71013e-05
15 *36:10 *227:B 4.94457e-05
16 *36:10 *45:14 0.000181176
17 *36:21 *45:14 6.81237e-05
18 *43:15 *45:14 0.000196376
*RES
1 *226:X *45:14 13.595 
2 *45:14 *228:B 1.6 
3 *45:14 *227:B 5.545 
*END

*D_NET *46 0.00205297
*CONN
*I *233:B I *D sky130_fd_sc_hd__nor3_1
*I *234:A1 I *D sky130_fd_sc_hd__o21a_1
*I *227:Y O *D sky130_fd_sc_hd__nor2_1
*CAP
1 *233:B 9.38641e-05
2 *234:A1 0.000135537
3 *227:Y 0.000455323
4 *46:6 0.000684724
5 *233:B *233:C 7.66083e-05
6 *233:B *51:8 4.82919e-05
7 *233:B *52:8 0
8 *234:A1 *232:B 0
9 *234:A1 *234:A2 0.000187766
10 *46:6 *232:A 2.16917e-05
11 *46:6 *47:8 0.000107176
12 *46:6 *51:8 0.000180373
13 *233:A *233:B 1.33293e-05
14 *24:12 *46:6 4.82863e-05
*RES
1 *227:Y *46:6 7.57 
2 *46:6 *234:A1 8.255 
3 *46:6 *233:B 3.445 
*END

*D_NET *47 0.00106876
*CONN
*I *232:A I *D sky130_fd_sc_hd__nor2_1
*I *235:A I *D sky130_fd_sc_hd__xor2_1
*I *228:Y O *D sky130_fd_sc_hd__xnor2_1
*CAP
1 *232:A 3.98399e-05
2 *235:A 0.000127291
3 *228:Y 0.000141333
4 *47:8 0.000308464
5 *232:A *51:8 5.4155e-06
6 *235:A *232:B 5.36514e-05
7 *227:A *47:8 4.89295e-05
8 *227:B *47:8 6.26111e-05
9 *24:12 *47:8 0.000152357
10 *46:6 *232:A 2.16917e-05
11 *46:6 *47:8 0.000107176
*RES
1 *228:Y *47:8 5.17 
2 *47:8 *235:A 7.745 
3 *47:8 *232:A 2.41 
*END

*D_NET *48 0.000445573
*CONN
*I *231:A3 I *D sky130_fd_sc_hd__a31o_1
*I *229:X O *D sky130_fd_sc_hd__or2_1
*CAP
1 *231:A3 7.93009e-05
2 *229:X 7.93009e-05
3 *231:A3 *229:B 0.00011379
4 *231:A3 *231:A2 8.65905e-05
5 *231:A3 *231:B1 8.65905e-05
6 *231:A3 *87:10 0
7 *231:A3 *87:12 0
*RES
1 *229:X *231:A3 9.375 
*END

*D_NET *49 0.000598084
*CONN
*I *231:B1 I *D sky130_fd_sc_hd__a31o_1
*I *230:Y O *D sky130_fd_sc_hd__a22oi_1
*CAP
1 *231:B1 0.000163393
2 *230:Y 0.000163393
3 *231:B1 *204:B 1.47347e-05
4 *231:B1 *230:A2 1.2317e-05
5 *231:B1 *230:B1 1.28745e-05
6 *231:B1 *231:A2 8.29685e-05
7 *231:B1 *85:52 1.35222e-05
8 *231:B1 *86:44 4.82919e-05
9 *231:A3 *231:B1 8.65905e-05
*RES
1 *230:Y *231:B1 6.53 
*END

*D_NET *50 0.00269632
*CONN
*I *232:B I *D sky130_fd_sc_hd__nor2_1
*I *235:B I *D sky130_fd_sc_hd__xor2_1
*I *231:X O *D sky130_fd_sc_hd__a31o_1
*CAP
1 *232:B 0.000231836
2 *235:B 0
3 *231:X 0.00076709
4 *50:14 0.000998927
5 *50:14 *217:A 4.49498e-05
6 *50:14 *217:B 0.000225586
7 *50:14 *230:A1 0
8 *50:14 *231:A2 8.40269e-05
9 *50:14 *86:44 7.66083e-05
10 *207:B *50:14 4.99619e-05
11 *234:A1 *232:B 0
12 *235:A *232:B 5.36514e-05
13 *27:12 *50:14 0.000163682
*RES
1 *231:X *50:14 17.885 
2 *50:14 *235:B 1.6 
3 *50:14 *232:B 9.23 
*END

*D_NET *51 0.00114351
*CONN
*I *233:C I *D sky130_fd_sc_hd__nor3_1
*I *234:A2 I *D sky130_fd_sc_hd__o21a_1
*I *232:Y O *D sky130_fd_sc_hd__nor2_1
*CAP
1 *233:C 4.37896e-05
2 *234:A2 7.08283e-05
3 *232:Y 0.00016246
4 *51:8 0.000277078
5 *233:C *52:8 1.85674e-05
6 *234:A2 *237:B 0
7 *234:A2 *252:A1 0
8 *232:A *51:8 5.4155e-06
9 *233:A *233:C 4.9253e-06
10 *233:A *234:A2 6.74079e-05
11 *233:B *233:C 7.66083e-05
12 *233:B *51:8 4.82919e-05
13 *234:A1 *234:A2 0.000187766
14 *46:6 *51:8 0.000180373
*RES
1 *232:Y *51:8 5.17 
2 *51:8 *234:A2 7.745 
3 *51:8 *233:C 2.755 
*END

*D_NET *52 0.000998135
*CONN
*I *237:A I *D sky130_fd_sc_hd__or3_1
*I *238:A1 I *D sky130_fd_sc_hd__o21ai_1
*I *252:A1 I *D sky130_fd_sc_hd__o21bai_1
*I *233:Y O *D sky130_fd_sc_hd__nor3_1
*CAP
1 *237:A 0.000139039
2 *238:A1 0
3 *252:A1 0.000106794
4 *233:Y 0.000104341
5 *52:8 0.000350175
6 *237:A *237:B 8.73389e-06
7 *237:A *237:C 5.93828e-05
8 *237:A *239:B 3.50581e-05
9 *252:A1 *237:B 8.53113e-06
10 *252:A1 *252:A2 2.60986e-05
11 *252:A1 *53:10 0.00010596
12 *52:8 *237:C 0
13 *233:A *237:A 5.4155e-06
14 *233:A *252:A1 0
15 *233:A *52:8 3.00381e-05
16 *233:B *52:8 0
17 *233:C *52:8 1.85674e-05
18 *234:A2 *252:A1 0
19 *41:10 *252:A1 0
*RES
1 *233:Y *52:8 3.61 
2 *52:8 *252:A1 7.49 
3 *52:8 *238:A1 1.6 
4 *52:8 *237:A 4.15 
*END

*D_NET *53 0.00135522
*CONN
*I *252:B1_N I *D sky130_fd_sc_hd__o21bai_1
*I *238:A2 I *D sky130_fd_sc_hd__o21ai_1
*I *237:B I *D sky130_fd_sc_hd__or3_1
*I *234:X O *D sky130_fd_sc_hd__o21a_1
*CAP
1 *252:B1_N 0.000172211
2 *238:A2 0
3 *237:B 0.000125374
4 *234:X 0.000143703
5 *53:10 0.000160165
6 *53:6 0.000350704
7 *237:B *239:B 8.65961e-05
8 *237:B *252:A2 2.30797e-05
9 *237:B *55:23 5.4003e-05
10 *53:10 *252:A2 0.000116158
11 *234:A2 *237:B 0
12 *237:A *237:B 8.73389e-06
13 *252:A1 *237:B 8.53113e-06
14 *252:A1 *53:10 0.00010596
*RES
1 *234:X *53:6 3.085 
2 *53:6 *53:10 3.38 
3 *53:10 *237:B 5.61 
4 *53:10 *238:A2 3.6 
5 *53:6 *252:B1_N 3.7 
*END

*D_NET *54 0.00087762
*CONN
*I *261:C I *D sky130_fd_sc_hd__or3_1
*I *236:B1 I *D sky130_fd_sc_hd__o21ai_1
*I *235:X O *D sky130_fd_sc_hd__xor2_1
*CAP
1 *261:C 3.9091e-05
2 *236:B1 0
3 *235:X 0.000294876
4 *54:12 0.000333967
5 *236:A1 *261:C 0
6 *261:A *261:C 8.31156e-05
7 *261:B *261:C 0.00012657
*RES
1 *235:X *54:12 9.83 
2 *54:12 *236:B1 1.6 
3 *54:12 *261:C 3.1 
*END

*D_NET *55 0.00205827
*CONN
*I *237:C I *D sky130_fd_sc_hd__or3_1
*I *238:B1 I *D sky130_fd_sc_hd__o21ai_1
*I *252:A2 I *D sky130_fd_sc_hd__o21bai_1
*I *262:A I *D sky130_fd_sc_hd__and2_1
*I *236:Y O *D sky130_fd_sc_hd__o21ai_1
*CAP
1 *237:C 2.6343e-05
2 *238:B1 0
3 *252:A2 0.000111447
4 *262:A 0
5 *236:Y 0.000355473
6 *55:36 6.79405e-05
7 *55:23 0.000272342
8 *55:14 0.000474771
9 *237:C *239:B 3.00381e-05
10 *55:14 *262:B 0.000267036
11 *55:23 *262:B 5.53249e-06
12 *237:A *237:C 5.93828e-05
13 *237:B *252:A2 2.30797e-05
14 *237:B *55:23 5.4003e-05
15 *252:A1 *252:A2 2.60986e-05
16 *261:A *55:14 0.00016862
17 *52:8 *237:C 0
18 *53:10 *252:A2 0.000116158
*RES
1 *236:Y *55:14 9.945 
2 *55:14 *262:A 3.6 
3 *55:14 *55:23 2.145 
4 *55:23 *252:A2 5.745 
5 *55:23 *55:36 2.45 
6 *55:36 *238:B1 1.6 
7 *55:36 *237:C 2.41 
*END

*D_NET *56 0.00017871
*CONN
*I *239:A I *D sky130_fd_sc_hd__and2_1
*I *237:X O *D sky130_fd_sc_hd__or3_1
*CAP
1 *239:A 5.59549e-05
2 *237:X 5.59549e-05
3 *239:A *239:B 6.68001e-05
*RES
1 *237:X *239:A 4.355 
*END

*D_NET *57 0.000646849
*CONN
*I *239:B I *D sky130_fd_sc_hd__and2_1
*I *238:Y O *D sky130_fd_sc_hd__o21ai_1
*CAP
1 *239:B 0.000214178
2 *238:Y 0.000214178
3 *237:A *239:B 3.50581e-05
4 *237:B *239:B 8.65961e-05
5 *237:C *239:B 3.00381e-05
6 *239:A *239:B 6.68001e-05
*RES
1 *238:Y *239:B 7.475 
*END

*D_NET *58 0.000885051
*CONN
*I *242:B1 I *D sky130_fd_sc_hd__a211o_1
*I *240:Y O *D sky130_fd_sc_hd__a31oi_1
*CAP
1 *242:B1 0.000252368
2 *240:Y 0.000252368
3 *242:B1 *240:A1 8.34281e-06
4 *242:B1 *240:B1 2.75145e-05
5 *242:B1 *260:B1 4.82919e-05
6 *242:B1 *59:6 4.82863e-05
7 *242:B1 *89:57 0.000178574
8 *242:A1 *242:B1 6.93045e-05
*RES
1 *240:Y *242:B1 7.58 
*END

*D_NET *59 0.00306203
*CONN
*I *260:B1 I *D sky130_fd_sc_hd__a211o_1
*I *242:C1 I *D sky130_fd_sc_hd__a211o_1