*SPEF "ieee 1481-1999"
*DESIGN "mult4_SARSA_RUIDO_e9_SARSA_RUIDO_e9_SarsaNStepsRuido_e9_SARSA_RUIDO_e9"
*DATE "11:49:47 Wednesday September 17, 2025"
*VENDOR "The OpenROAD Project"
*PROGRAM "OpenROAD"
*VERSION "edf00dff99f6c40d67a30c0e22a8191c5d2ed9d6"
*DESIGN_FLOW "NAME_SCOPE LOCAL" "PIN_CAP NONE"
*DIVIDER /
*DELIMITER :
*BUS_DELIMITER []
*T_UNIT 1 NS
*C_UNIT 1 PF
*R_UNIT 1 OHM
*L_UNIT 1 HENRY

*NAME_MAP
*1 A[0]
*2 A[1]
*3 A[2]
*4 A[3]
*5 B[0]
*6 B[1]
*7 B[2]
*8 B[3]
*9 P[0]
*10 P[1]
*11 P[2]
*12 P[3]
*13 P[4]
*14 P[5]
*15 P[6]
*16 P[7]
*19 _000_
*20 _001_
*21 _002_
*22 _003_
*23 _004_
*24 _005_
*25 _006_
*26 _007_
*27 _008_
*28 _009_
*29 _010_
*30 _011_
*31 _012_
*32 _013_
*33 _014_
*34 _015_
*35 _016_
*36 _017_
*37 _018_
*38 _019_
*39 _020_
*40 _021_
*41 _022_
*42 _023_
*43 _024_
*44 _025_
*45 _026_
*46 _027_
*47 _028_
*48 _029_
*49 _030_
*50 _031_
*51 _032_
*52 _033_
*53 _034_
*54 _035_
*55 _036_
*56 _037_
*57 _038_
*58 _039_
*59 _040_
*60 _041_
*61 _042_
*62 _043_
*63 _044_
*64 _045_
*65 _046_
*66 _047_
*67 _048_
*68 _049_
*69 net1
*70 net10
*71 net11
*72 net12
*73 net13
*74 net14
*75 net15
*76 net16
*77 net2
*78 net3
*79 net4
*80 net5
*81 net6
*82 net7
*83 net8
*84 net9
*85 FILLER_0_11
*86 FILLER_0_18
*87 FILLER_0_29
*88 FILLER_0_3
*89 FILLER_0_49
*90 FILLER_0_62
*91 FILLER_0_74
*92 FILLER_0_80
*93 FILLER_1_13
*94 FILLER_1_20
*95 FILLER_1_26
*96 FILLER_1_46
*97 FILLER_1_50
*98 FILLER_1_68
*99 FILLER_1_80
*100 FILLER_2_13
*101 FILLER_2_19
*102 FILLER_2_26
*103 FILLER_2_37
*104 FILLER_2_45
*105 FILLER_2_57
*106 FILLER_2_69
*107 FILLER_3_15
*108 FILLER_3_27
*109 FILLER_3_38
*110 FILLER_3_55
*111 FILLER_3_57
*112 FILLER_3_6
*113 FILLER_3_65
*114 FILLER_3_79
*115 FILLER_4_17
*116 FILLER_4_29
*117 FILLER_4_34
*118 FILLER_4_41
*119 FILLER_4_53
*120 FILLER_4_65
*121 FILLER_4_7
*122 FILLER_4_70
*123 FILLER_4_76
*124 FILLER_5_18
*125 FILLER_5_24
*126 FILLER_5_28
*127 FILLER_5_37
*128 FILLER_5_45
*129 FILLER_5_53
*130 FILLER_5_57
*131 FILLER_5_65
*132 FILLER_5_76
*133 FILLER_6_27
*134 FILLER_6_37
*135 FILLER_6_52
*136 FILLER_6_64
*137 FILLER_6_74
*138 FILLER_6_80
*139 FILLER_7_16
*140 FILLER_7_28
*141 FILLER_7_40
*142 FILLER_7_52
*143 FILLER_7_57
*144 FILLER_7_65
*145 FILLER_7_75
*146 FILLER_8_20
*147 FILLER_8_29
*148 FILLER_8_3
*149 FILLER_8_48
*150 FILLER_8_73
*151 FILLER_9_15
*152 FILLER_9_3
*153 FILLER_9_36
*154 FILLER_9_48
*155 FILLER_9_67
*156 FILLER_9_75
*157 PHY_EDGE_ROW_0_Left_10
*158 PHY_EDGE_ROW_0_Right_0
*159 PHY_EDGE_ROW_1_Left_11
*160 PHY_EDGE_ROW_1_Right_1
*161 PHY_EDGE_ROW_2_Left_12
*162 PHY_EDGE_ROW_2_Right_2
*163 PHY_EDGE_ROW_3_Left_13
*164 PHY_EDGE_ROW_3_Right_3
*165 PHY_EDGE_ROW_4_Left_14
*166 PHY_EDGE_ROW_4_Right_4
*167 PHY_EDGE_ROW_5_Left_15
*168 PHY_EDGE_ROW_5_Right_5
*169 PHY_EDGE_ROW_6_Left_16
*170 PHY_EDGE_ROW_6_Right_6
*171 PHY_EDGE_ROW_7_Left_17
*172 PHY_EDGE_ROW_7_Right_7
*173 PHY_EDGE_ROW_8_Left_18
*174 PHY_EDGE_ROW_8_Right_8
*175 PHY_EDGE_ROW_9_Left_19
*176 PHY_EDGE_ROW_9_Right_9
*177 TAP_TAPCELL_ROW_0_20
*178 TAP_TAPCELL_ROW_0_21
*179 TAP_TAPCELL_ROW_1_22
*180 TAP_TAPCELL_ROW_2_23
*181 TAP_TAPCELL_ROW_3_24
*182 TAP_TAPCELL_ROW_4_25
*183 TAP_TAPCELL_ROW_5_26
*184 TAP_TAPCELL_ROW_6_27
*185 TAP_TAPCELL_ROW_7_28
*186 TAP_TAPCELL_ROW_8_29
*187 TAP_TAPCELL_ROW_9_30
*188 TAP_TAPCELL_ROW_9_31
*189 _050_
*190 _051_
*191 _052_
*192 _053_
*193 _054_
*194 _055_
*195 _056_
*196 _057_
*197 _058_
*198 _059_
*199 _060_
*200 _061_
*201 _062_
*202 _063_
*203 _064_
*204 _065_
*205 _066_
*206 _067_
*207 _068_
*208 _069_
*209 _070_
*210 _071_
*211 _072_
*212 _073_
*213 _074_
*214 _075_
*215 _076_
*216 _077_
*217 _078_
*218 _079_
*219 _080_
*220 _081_
*221 _082_
*222 _083_
*223 _084_
*224 _085_
*225 _086_
*226 _087_
*227 _088_
*228 _089_
*229 _090_
*230 _091_
*231 _092_
*232 _093_
*233 _094_
*234 _095_
*235 _096_
*236 _097_
*237 _098_
*238 _099_
*239 _100_
*240 _101_
*241 _102_
*242 _103_
*243 _104_
*244 _105_
*245 _106_
*246 _107_
*247 input1
*248 input2
*249 input3
*250 input4
*251 input5
*252 input6
*253 input7
*254 input8
*255 output10
*256 output11
*257 output12
*258 output13
*259 output14
*260 output15
*261 output16
*262 output9

*PORTS
A[0] I
A[1] I
A[2] I
A[3] I
B[0] I
B[1] I
B[2] I
B[3] I
P[0] O
P[1] O
P[2] O
P[3] O
P[4] O
P[5] O
P[6] O
P[7] O

*D_NET *1 0.000821304
*CONN
*P A[0] I
*I *247:A I *D sky130_fd_sc_hd__clkbuf_2
*CAP
1 A[0] 0.000410652
2 *247:A 0.000410652
3 *247:A P[0] 0
4 *247:A P[2] 0
*RES
1 A[0] *247:A 10.65 
*END

*D_NET *2 0.00081916
*CONN
*P A[1] I
*I *248:A I *D sky130_fd_sc_hd__dlymetal6s2s_1
*CAP
1 A[1] 0.000379296
2 *248:A 0.000379296
3 *248:A P[0] 0
4 *248:A P[1] 0
5 *248:A *195:C1 1.22762e-05
6 *248:A *84:6 4.82919e-05
*RES
1 A[1] *248:A 10.35 
*END

*D_NET *3 0.000686096
*CONN
*P A[2] I
*I *249:A I *D sky130_fd_sc_hd__clkbuf_2
*CAP
1 A[2] 0.000316985
2 *249:A 0.000316985
3 *249:A *251:A 2.24901e-05
4 *249:A *253:A 2.96366e-05
*RES
1 A[2] *249:A 7.9443 
*END

*D_NET *4 0.000532809
*CONN
*P A[3] I
*I *250:A I *D sky130_fd_sc_hd__dlymetal6s2s_1
*CAP
1 A[3] 0.000255159
2 *250:A 0.000255159
3 *250:A *254:A 2.24901e-05
*RES
1 A[3] *250:A 6.8343 
*END

*D_NET *5 0.000702158
*CONN
*P B[0] I
*I *251:A I *D sky130_fd_sc_hd__buf_1
*CAP
1 B[0] 0.000325581
2 *251:A 0.000325581
3 *251:A *252:A 2.85068e-05
4 *251:A *80:8 0
5 *249:A *251:A 2.24901e-05
*RES
1 B[0] *251:A 8.68043 
*END

*D_NET *6 0.000538308
*CONN
*P B[1] I
*I *252:A I *D sky130_fd_sc_hd__dlymetal6s2s_1
*CAP
1 B[1] 0.0002549
2 *252:A 0.0002549
3 *251:A *252:A 2.85068e-05
*RES
1 B[1] *252:A 6.8343 
*END

*D_NET *7 0.000595152
*CONN
*P B[2] I
*I *253:A I *D sky130_fd_sc_hd__dlymetal6s2s_1
*CAP
1 B[2] 0.000268504
2 *253:A 0.000268504
3 *253:A *254:A 2.85068e-05
4 *249:A *253:A 2.96366e-05
*RES
1 B[2] *253:A 7.3443 
*END

*D_NET *8 0.00049828
*CONN
*P B[3] I
*I *254:A I *D sky130_fd_sc_hd__dlymetal6s2s_1
*CAP
1 B[3] 0.000223642
2 *254:A 0.000223642
3 *254:A *79:12 0
4 *250:A *254:A 2.24901e-05
5 *253:A *254:A 2.85068e-05
*RES
1 B[3] *254:A 5.35677 
*END

*D_NET *9 0.00109522
*CONN
*P P[0] O
*I *262:X O *D sky130_fd_sc_hd__buf_2
*CAP
1 P[0] 0.000515295
2 *262:X 0.000515295
3 P[0] *262:A 6.46302e-05
4 *247:A P[0] 0
5 *248:A P[0] 0
*RES
1 *262:X P[0] 11.565 
*END

*D_NET *10 0.000864498
*CONN
*P P[1] O
*I *255:X O *D sky130_fd_sc_hd__buf_2
*CAP
1 P[1] 0.000387469
2 *255:X 0.000387469
3 P[1] *193:A3 2.97004e-06
4 P[1] *195:C1 8.65905e-05
5 *248:A P[1] 0
*RES
1 *255:X P[1] 10.185 
*END

*D_NET *11 0.000874906
*CONN
*P P[2] O
*I *256:X O *D sky130_fd_sc_hd__buf_2
*CAP
1 P[2] 0.000437453
2 *256:X 0.000437453
3 *247:A P[2] 0
*RES
1 *256:X P[2] 10.53 
*END

*D_NET *12 0.000636686
*CONN
*P P[3] O
*I *257:X O *D sky130_fd_sc_hd__buf_2
*CAP
1 P[3] 0.000217746
2 *257:X 0.000217746
3 P[3] P[4] 9.25475e-05
4 P[3] *257:A 0.000108647
*RES
1 *257:X P[3] 5.92503 
*END

*D_NET *13 0.000524121
*CONN
*P P[4] O
*I *258:X O *D sky130_fd_sc_hd__buf_2
*CAP
1 P[4] 0.000215787
2 *258:X 0.000215787
3 P[4] *224:B 0
4 P[3] P[4] 9.25475e-05
*RES
1 *258:X P[4] 5.41503 
*END

*D_NET *14 0.000590487
*CONN
*P P[5] O
*I *259:X O *D sky130_fd_sc_hd__buf_2
*CAP
1 P[5] 0.000264898
2 *259:X 0.000264898
3 P[5] *259:A 6.06899e-05
*RES
1 *259:X P[5] 5.92503 
*END

*D_NET *15 0.00117768
*CONN
*P P[6] O
*I *260:X O *D sky130_fd_sc_hd__buf_2
*CAP
1 P[6] 0.000578288
2 *260:X 0.000578288
3 P[6] *260:A 2.11084e-05
*RES
1 *260:X P[6] 13.035 
*END

*D_NET *16 0.00133377
*CONN
*P P[7] O
*I *261:X O *D sky130_fd_sc_hd__buf_2
*CAP
1 P[7] 0.000626461
2 *261:X 0.000626461
3 P[7] *244:C1 0
4 P[7] *261:A 8.08439e-05
5 P[7] *63:10 0
*RES
1 *261:X P[7] 14.52 
*END

*D_NET *19 0.000965049
*CONN
*I *195:A1 I *D sky130_fd_sc_hd__a211oi_1
*I *193:A2 I *D sky130_fd_sc_hd__a31oi_1
*I *189:Y O *D sky130_fd_sc_hd__inv_2
*CAP
1 *195:A1 1.97248e-05
2 *193:A2 5.22276e-05
3 *189:Y 0.00010367
4 *19:12 0.000175623
5 *193:A2 *193:A3 4.16184e-05
6 *193:A2 *195:A2 4.82919e-05
7 *193:A2 *195:B1 0.000164874
8 *195:A1 *193:A3 1.09556e-05
9 *195:A1 *195:C1 1.37328e-05
10 *19:12 *192:A 6.6564e-05
11 *19:12 *193:A3 0.000106508
12 *19:12 *195:B1 8.8266e-05
13 *19:12 *195:C1 2.30292e-05
14 *19:12 *255:A 4.99619e-05
*RES
1 *189:Y *19:12 8.81 
2 *19:12 *193:A2 3.445 
3 *19:12 *195:A1 2.215 
*END

*D_NET *20 0.000384362
*CONN
*I *206:A I *D sky130_fd_sc_hd__or4b_1
*I *190:Y O *D sky130_fd_sc_hd__inv_2
*CAP
1 *206:A 8.39956e-05
2 *190:Y 8.39956e-05
3 *206:A *206:B 1.01661e-05
4 *206:A *226:A 2.97004e-06
5 *206:A *32:12 0.00011852
6 *206:A *82:28 5.72004e-05
7 *206:A *83:31 2.75145e-05
*RES
1 *190:Y *206:A 9.285 
*END

*D_NET *21 0.00259452
*CONN
*I *206:B I *D sky130_fd_sc_hd__or4b_1
*I *227:A1 I *D sky130_fd_sc_hd__a211o_1
*I *225:A2 I *D sky130_fd_sc_hd__a31oi_1
*I *191:Y O *D sky130_fd_sc_hd__inv_2
*CAP
1 *206:B 0.000142698
2 *227:A1 0
3 *225:A2 0.000103059
4 *191:Y 1.01288e-05
5 *21:22 0.000424703
6 *21:6 0.000474471
7 *206:B *226:A 0
8 *206:B *238:A 2.97746e-05
9 *206:B *27:12 4.46271e-05
10 *206:B *32:12 2.85764e-05
11 *206:B *83:41 0
12 *225:A2 *227:B1 6.60514e-05
13 *225:A2 *54:8 0.000162325
14 *225:A2 *78:47 4.43871e-06
15 *225:A2 *78:69 1.44177e-05
16 *225:A2 *82:6 4.82863e-05
17 *225:A2 *82:15 4.82919e-05
18 *21:6 *238:A 4.77757e-05
19 *21:6 *27:21 2.10214e-05
20 *21:22 *226:D 0.0001249
21 *21:22 *227:A2 0.000153344
22 *21:22 *227:C1 8.8266e-05
23 *21:22 *238:A 4.66108e-05
24 *21:22 *238:B 0.000296597
25 *21:22 *238:C 5.49479e-05
26 *21:22 *27:21 5.20476e-05
27 *21:22 *79:79 1.12578e-05
28 *21:22 *83:14 8.57406e-05
29 *206:A *206:B 1.01661e-05
*RES
1 *191:Y *21:6 2.05 
2 *21:6 *21:22 8.07 
3 *21:22 *225:A2 8.285 
4 *21:22 *227:A1 1.6 
5 *21:6 *206:B 8.255 
*END

*D_NET *22 0.000797613
*CONN
*I *195:B1 I *D sky130_fd_sc_hd__a211oi_1
*I *193:Y O *D sky130_fd_sc_hd__a31oi_1
*CAP
1 *195:B1 5.15759e-05
2 *193:Y 5.15759e-05
3 *195:B1 *192:A 0.000354725
4 *195:B1 *193:A1 8.65961e-05
5 *193:A2 *195:B1 0.000164874
6 *19:12 *195:B1 8.8266e-05
*RES
1 *193:Y *195:B1 6.41 
*END

*D_NET *23 0.00405348
*CONN
*I *217:A I *D sky130_fd_sc_hd__or2_1
*I *214:A I *D sky130_fd_sc_hd__and2_1
*I *195:C1 I *D sky130_fd_sc_hd__a211oi_1
*I *194:X O *D sky130_fd_sc_hd__and3_1
*CAP
1 *217:A 0.000366785
2 *214:A 0
3 *195:C1 0.000243814
4 *194:X 0
5 *23:39 0.000930117
6 *23:6 0.000807145
7 *195:C1 *192:A 4.87317e-05
8 *195:C1 *192:B 8.08439e-05
9 *195:C1 *193:A3 0.000163199
10 *195:C1 *255:A 8.8266e-05
11 *195:C1 *77:16 5.34809e-05
12 *195:C1 *84:6 5.83121e-06
13 *195:C1 *84:12 0
14 *217:A *217:B 0.000108309
15 *217:A *219:B1 0.000167606
16 *217:A *41:6 4.82863e-05
17 *217:A *44:8 3.23663e-05
18 *23:39 *192:B 2.42236e-05
19 *23:39 *193:A3 4.66108e-05
20 *23:39 *194:B 3.76774e-05
21 *23:39 *194:C 0.000126637
22 *23:39 *196:B 8.49571e-05
23 *23:39 *196:C 2.57856e-05
24 *23:39 *199:A 5.13692e-05
25 *23:39 *217:B 3.26889e-05
26 *23:39 *256:A 0.000275033
27 *23:39 *24:8 1.03423e-05
28 *23:39 *77:16 3.09164e-05
29 *23:39 *81:36 2.68281e-05
30 P[1] *195:C1 8.65905e-05
31 *195:A1 *195:C1 1.37328e-05
32 *248:A *195:C1 1.22762e-05
33 *19:12 *195:C1 2.30292e-05
*RES
1 *194:X *23:6 3.6 
2 *23:6 *195:C1 9.75 
3 *23:6 *23:39 13.355 
4 *23:39 *214:A 1.6 
5 *23:39 *217:A 7.48 
*END

*D_NET *24 0.000838391
*CONN
*I *198:C I *D sky130_fd_sc_hd__and3_1
*I *199:A I *D sky130_fd_sc_hd__xnor2_1
*I *196:X O *D sky130_fd_sc_hd__and3b_1
*CAP
1 *198:C 0.000115267
2 *199:A 5.00363e-05
3 *196:X 3.90863e-05
4 *24:8 0.00020439
5 *198:C *199:B 7.06865e-05
6 *198:C *69:12 8.0442e-05
7 *198:C *69:20 4.66108e-05
8 *198:C *77:59 6.38291e-05
9 *199:A *199:B 5.23362e-05
10 *199:A *77:59 5.39961e-05
11 *23:39 *199:A 5.13692e-05
12 *23:39 *24:8 1.03423e-05
*RES
1 *196:X *24:8 4.05 
2 *24:8 *199:A 5.01 
3 *24:8 *198:C 5.67 
*END

*D_NET *25 0.00233662
*CONN
*I *206:D_N I *D sky130_fd_sc_hd__or4b_1
*I *201:C I *D sky130_fd_sc_hd__and3_1
*I *199:B I *D sky130_fd_sc_hd__xnor2_1
*I *197:Y O *D sky130_fd_sc_hd__nand2_1
*CAP
1 *206:D_N 0.000192125
2 *201:C 5.91903e-05
3 *199:B 0.000167243
4 *197:Y 0.000113363
5 *25:19 0.000352157
6 *25:8 0.000381448
7 *199:B *198:B 3.62197e-05
8 *199:B *77:59 0.00010844
9 *201:C *83:31 2.60713e-07
10 *201:C *83:72 2.20732e-05
11 *206:D_N *207:A 0.000139238
12 *206:D_N *207:B 0.000121019
13 *206:D_N *33:10 6.80075e-05
14 *206:D_N *77:78 6.94735e-06
15 *206:D_N *83:41 0.000139238
16 *25:8 *69:54 0.000159002
17 *25:19 *198:B 2.43962e-05
18 *25:19 *77:59 3.50033e-05
19 *25:19 *77:78 5.78739e-05
20 *25:19 *82:58 3.03465e-05
21 *198:C *199:B 7.06865e-05
22 *199:A *199:B 5.23362e-05
*RES
1 *197:Y *25:8 5.085 
2 *25:8 *199:B 7.275 
3 *25:8 *25:19 2.145 
4 *25:19 *201:C 4.2975 
5 *25:19 *206:D_N 8.205 
*END

*D_NET *26 0.0032303
*CONN
*I *236:A1 I *D sky130_fd_sc_hd__a31o_1
*I *223:A I *D sky130_fd_sc_hd__nand2_1
*I *245:A I *D sky130_fd_sc_hd__or2_1
*I *198:X O *D sky130_fd_sc_hd__and3_1
*CAP
1 *236:A1 0.000258822
2 *223:A 3.73572e-05
3 *245:A 0
4 *198:X 0.000889717
5 *26:19 0.000378743
6 *26:10 0.00097228
7 *223:A *50:8 5.05437e-05
8 *236:A1 *224:B 7.75412e-05
9 *236:A1 *236:A2 0.00011852
10 *236:A1 *236:A3 4.66742e-05
11 *26:10 *246:A 2.45182e-05
12 *26:10 *43:8 0.000321337
13 *26:10 *46:8 0
14 *26:19 *224:B 1.73877e-05
15 *26:19 *236:A3 0
16 *26:19 *246:A 3.68596e-05
17 *26:19 *49:12 0
*RES
1 *198:X *26:10 14.91 
2 *26:10 *245:A 3.6 
3 *26:10 *26:19 1.635 
4 *26:19 *223:A 4.395 
5 *26:19 *236:A1 8.685 
*END

*D_NET *27 0.00196637
*CONN
*I *209:A I *D sky130_fd_sc_hd__xor2_1
*I *208:A I *D sky130_fd_sc_hd__or2_1
*I *238:C I *D sky130_fd_sc_hd__and3_1
*I *200:Y O *D sky130_fd_sc_hd__nand2_1
*CAP
1 *209:A 0.000176689
2 *208:A 1.76941e-05
3 *238:C 3.79806e-05
4 *200:Y 0.000172632
5 *27:21 0.000493084
6 *27:12 0.000509314
7 *209:A *208:B 4.76682e-05
8 *209:A *209:B 7.0105e-05
9 *27:12 *207:B 5.83121e-06
10 *27:12 *226:A 0
11 *27:12 *33:10 0.000124895
12 *27:12 *82:15 2.30292e-05
13 *27:12 *82:24 4.82863e-05
14 *27:21 *238:A 1.05984e-05
15 *27:21 *35:10 7.07047e-06
16 *27:21 *83:41 4.88478e-05
17 *206:B *27:12 4.46271e-05
18 *21:6 *27:21 2.10214e-05
19 *21:22 *238:C 5.49479e-05
20 *21:22 *27:21 5.20476e-05
*RES
1 *200:Y *27:12 8.9 
2 *27:12 *238:C 2.11 
3 *27:12 *27:21 3.555 
4 *27:21 *208:A 1.96 
5 *27:21 *209:A 4.045 
*END

*D_NET *28 0.000284494
*CONN
*I *207:A I *D sky130_fd_sc_hd__xor2_1
*I *201:X O *D sky130_fd_sc_hd__and3_1
*CAP
1 *207:A 7.26279e-05
2 *201:X 7.26279e-05
3 *206:D_N *207:A 0.000139238
*RES
1 *201:X *207:A 8.835 
*END

*D_NET *29 0.000402954
*CONN
*I *205:A1 I *D sky130_fd_sc_hd__a21o_1
*I *202:Y O *D sky130_fd_sc_hd__nand2_1
*CAP
1 *205:A1 0.000108895
2 *202:Y 0.000108895
3 *205:A1 *205:A2 4.82863e-05
4 *205:A1 *31:10 0.000136877
5 *205:A1 *80:8 0
*RES
1 *202:Y *205:A1 9.285 
*END

*D_NET *30 0.00195288
*CONN
*I *216:B1 I *D sky130_fd_sc_hd__o211a_1
*I *205:A2 I *D sky130_fd_sc_hd__a21o_1
*I *203:Y O *D sky130_fd_sc_hd__nand3_1
*CAP
1 *216:B1 0.00044704
2 *205:A2 0.000190084
3 *203:Y 0
4 *30:4 0.000637124
5 *205:A2 *32:12 8.49205e-05
6 *205:A2 *78:10 6.36578e-05
7 *205:A2 *79:18 6.55328e-05
8 *205:A2 *80:55 8.88631e-05
9 *216:B1 *215:A2 0.000162311
10 *216:B1 *215:B1 1.83847e-05
11 *216:B1 *216:A1 6.64068e-05
12 *216:B1 *216:C1 6.69341e-05
13 *216:B1 *80:66 1.33293e-05
14 *205:A1 *205:A2 4.82863e-05
*RES
1 *203:Y *30:4 1.6 
2 *30:4 *205:A2 9.86 
3 *30:4 *216:B1 7.75 
*END

*D_NET *31 0.00116175
*CONN
*I *228:A I *D sky130_fd_sc_hd__nand2_1
*I *229:A I *D sky130_fd_sc_hd__or2_1
*I *205:B1 I *D sky130_fd_sc_hd__a21o_1
*I *204:X O *D sky130_fd_sc_hd__and4_1
*CAP
1 *228:A 3.63301e-05
2 *229:A 1.26535e-05
3 *205:B1 0
4 *204:X 0.000111487
5 *31:21 0.000125426
6 *31:10 0.00018793
7 *228:A *229:B 7.25732e-05
8 *228:A *37:21 0
9 *228:A *78:8 7.40446e-05
10 *229:A *229:B 1.08758e-05
11 *229:A *230:B 1.17309e-05
12 *229:A *78:8 4.82863e-05
13 *31:10 *202:A 0.00012657
14 *31:10 *79:18 3.68862e-05
15 *31:10 *80:8 0
16 *31:10 *80:55 9.37731e-05
17 *31:21 *79:18 7.63047e-05
18 *205:A1 *31:10 0.000136877
*RES
1 *204:X *31:10 6.63 
2 *31:10 *205:B1 3.6 
3 *31:10 *31:21 3.635 
4 *31:21 *229:A 2.05 
5 *31:21 *228:A 2.755 
*END

*D_NET *32 0.0024939
*CONN
*I *207:B I *D sky130_fd_sc_hd__xor2_1
*I *206:C I *D sky130_fd_sc_hd__or4b_1
*I *205:X O *D sky130_fd_sc_hd__a21o_1
*CAP
1 *207:B 0.000199834
2 *206:C 0
3 *205:X 0.000470417
4 *32:12 0.00067025
5 *207:B *33:10 5.19541e-05
6 *32:12 *197:B 1.67904e-05
7 *32:12 *210:A 0
8 *32:12 *213:B1 0.000428764
9 *32:12 *69:46 0.000277601
10 *32:12 *82:28 0
11 *32:12 *82:41 1.94182e-05
12 *205:A2 *32:12 8.49205e-05
13 *206:A *32:12 0.00011852
14 *206:B *32:12 2.85764e-05
15 *206:D_N *207:B 0.000121019
16 *27:12 *207:B 5.83121e-06
*RES
1 *205:X *32:12 15.845 
2 *32:12 *206:C 1.6 
3 *32:12 *207:B 4.81 
*END

*D_NET *33 0.00266246
*CONN
*I *232:A I *D sky130_fd_sc_hd__and3_1
*I *233:A I *D sky130_fd_sc_hd__nand3_1
*I *234:A1 I *D sky130_fd_sc_hd__a21oi_1
*I *206:X O *D sky130_fd_sc_hd__or4b_1
*CAP
1 *232:A 3.78999e-05
2 *233:A 0.000348536
3 *234:A1 0.000126157
4 *206:X 0.000469412
5 *33:12 0.000474694
6 *33:10 0.000507312
7 *232:A *35:10 8.28738e-05
8 *233:A *241:A1 0
9 *234:A1 *35:10 7.01359e-05
10 *234:A1 *63:10 0
11 *33:10 *34:12 0
12 *33:10 *35:10 0.000186092
13 *33:10 *83:41 0.000114492
14 *206:D_N *33:10 6.80075e-05
15 *207:B *33:10 5.19541e-05
16 *27:12 *33:10 0.000124895
*RES
1 *206:X *33:10 11.34 
2 *33:10 *33:12 2 
3 *33:12 *234:A1 7.265 
4 *33:12 *233:A 9.845 
5 *33:10 *232:A 4.725 
*END

*D_NET *34 0.000576917
*CONN
*I *209:B I *D sky130_fd_sc_hd__xor2_1
*I *208:B I *D sky130_fd_sc_hd__or2_1
*I *207:X O *D sky130_fd_sc_hd__xor2_1
*CAP
1 *209:B 4.67054e-05
2 *208:B 2.08684e-05
3 *207:X 0.000161998
4 *34:12 0.000229572
5 *34:12 *83:41 0
6 *209:A *208:B 4.76682e-05
7 *209:A *209:B 7.0105e-05
8 *33:10 *34:12 0
*RES
1 *207:X *34:12 7.94 
2 *34:12 *208:B 2.05 
3 *34:12 *209:B 2.665 
*END

*D_NET *35 0.00178427
*CONN
*I *232:B I *D sky130_fd_sc_hd__and3_1
*I *233:B I *D sky130_fd_sc_hd__nand3_1
*I *234:A2 I *D sky130_fd_sc_hd__a21oi_1
*I *208:X O *D sky130_fd_sc_hd__or2_1
*CAP
1 *232:B 0.000136453
2 *233:B 7.80133e-05
3 *234:A2 0
4 *208:X 0.000228526
5 *35:12 7.80133e-05
6 *35:10 0.00036498
7 *232:B *60:10 7.18832e-05
8 *232:B *63:10 0
9 *233:B *233:C 0.000104121
10 *233:B *235:A 0.000124473
11 *233:B *57:21 7.6286e-05
12 *233:B *60:10 0.000171703
13 *35:10 *63:10 0
14 *35:10 *83:41 3.64998e-06
15 *232:A *35:10 8.28738e-05
16 *234:A1 *35:10 7.01359e-05
17 *27:21 *35:10 7.07047e-06
18 *33:10 *35:10 0.000186092
*RES
1 *208:X *35:10 7.815 
2 *35:10 *35:12 2 
3 *35:12 *234:A2 1.6 
4 *35:12 *233:B 4.465 
5 *35:10 *232:B 5.61 
*END

*D_NET *36 0.00167084
*CONN
*I *242:A1 I *D sky130_fd_sc_hd__a311o_1
*I *220:A I *D sky130_fd_sc_hd__and2_1
*I *221:A I *D sky130_fd_sc_hd__xor2_1
*I *209:X O *D sky130_fd_sc_hd__xor2_1
*CAP
1 *242:A1 0.000176661
2 *220:A 0
3 *221:A 0.000111241
4 *209:X 0.000295157
5 *36:21 0.000245113
6 *36:8 0.000474849
7 *221:A *46:19 0.000132713
8 *242:A1 *236:B1 0
9 *242:A1 *241:A1 6.00201e-05
10 *242:A1 *242:A2 9.43226e-05
11 *242:A1 *46:19 1.71013e-05
12 *36:21 *46:19 6.36578e-05
*RES
1 *209:X *36:8 6.81 
2 *36:8 *221:A 6.255 
3 *36:8 *36:21 3.38 
4 *36:21 *220:A 1.6 
5 *36:21 *242:A1 8.975 
*END

*D_NET *37 0.00301901
*CONN
*I *229:B I *D sky130_fd_sc_hd__or2_1
*I *228:B I *D sky130_fd_sc_hd__nand2_1
*I *213:B1 I *D sky130_fd_sc_hd__a21oi_1
*I *210:X O *D sky130_fd_sc_hd__and4_1
*CAP
1 *229:B 0.000134811
2 *228:B 0
3 *213:B1 0.000446925
4 *210:X 0
5 *37:21 0.000272985
6 *37:4 0.000585099
7 *213:B1 *197:A 7.09309e-05
8 *213:B1 *210:A 0
9 *213:B1 *211:C_N 2.01504e-05
10 *213:B1 *211:D_N 0.00012182
11 *213:B1 *212:A 0.0001249
12 *213:B1 *212:B 0.0001249
13 *213:B1 *69:46 6.60042e-05
14 *213:B1 *69:54 0.000104237
15 *213:B1 *78:10 3.68596e-05
16 *213:B1 *78:47 2.97004e-06
17 *213:B1 *82:58 0.000268943
18 *229:B *210:D 0
19 *229:B *230:B 4.82919e-05
20 *229:B *78:8 2.10134e-05
21 *37:21 *210:D 5.4155e-06
22 *37:21 *78:8 5.05437e-05
23 *228:A *229:B 7.25732e-05
24 *228:A *37:21 0
25 *229:A *229:B 1.08758e-05
26 *32:12 *213:B1 0.000428764
*RES
1 *210:X *37:4 1.6 
2 *37:4 *213:B1 16.145 
3 *37:4 *37:21 2.445 
4 *37:21 *228:B 1.6 
5 *37:21 *229:B 4.765 
*END

*D_NET *38 0.000312921
*CONN
*I *213:A1 I *D sky130_fd_sc_hd__a21oi_1
*I *211:X O *D sky130_fd_sc_hd__or4bb_1
*CAP
1 *213:A1 5.65906e-05
2 *211:X 5.65906e-05
3 *213:A1 *212:A 7.87847e-05
4 *213:A1 *213:A2 3.26889e-05
5 *213:A1 *40:12 8.8266e-05
*RES
1 *211:X *213:A1 4.955 
*END

*D_NET *39 0.00020241
*CONN
*I *213:A2 I *D sky130_fd_sc_hd__a21oi_1
*I *212:Y O *D sky130_fd_sc_hd__nand2_1
*CAP
1 *213:A2 2.83449e-05
2 *212:Y 2.83449e-05
3 *213:A2 *212:A 3.95724e-05
4 *213:A2 *212:B 2.29156e-05
5 *213:A2 *40:12 5.05437e-05
6 *213:A1 *213:A2 3.26889e-05
*RES
1 *212:Y *213:A2 4.355 
*END

*D_NET *40 0.0017182
*CONN
*I *214:B I *D sky130_fd_sc_hd__and2_1
*I *217:B I *D sky130_fd_sc_hd__or2_1
*I *213:Y O *D sky130_fd_sc_hd__a21oi_1
*CAP
1 *214:B 0
2 *217:B 0.000149312
3 *213:Y 0.000383205
4 *40:12 0.000532517
5 *217:B *219:B1 8.70541e-05
6 *217:B *41:6 2.75145e-05
7 *217:B *44:8 0.000237249
8 *40:12 *212:A 9.27255e-06
9 *40:12 *218:A_N 1.22676e-05
10 *40:12 *219:A1 0
11 *40:12 *222:A 0
12 *40:12 *69:12 0
13 *213:A1 *40:12 8.8266e-05
14 *213:A2 *40:12 5.05437e-05
15 *217:A *217:B 0.000108309
16 *23:39 *217:B 3.26889e-05
*RES
1 *213:Y *40:12 10.85 
2 *40:12 *217:B 5.875 
3 *40:12 *214:B 1.6 
*END

*D_NET *41 0.000937962
*CONN
*I *219:B1 I *D sky130_fd_sc_hd__a21o_1
*I *218:A_N I *D sky130_fd_sc_hd__nand2b_1
*I *214:X O *D sky130_fd_sc_hd__and2_1
*CAP
1 *219:B1 5.69957e-05
2 *218:A_N 0.000143684
3 *214:X 1.17533e-05
4 *41:6 0.000212433
5 *218:A_N *218:B 0.000115001
6 *218:A_N *219:A1 1.1561e-05
7 *218:A_N *219:A2 4.38051e-05
8 *218:A_N *256:A 0
9 *218:A_N *69:12 0
10 *217:A *219:B1 0.000167606
11 *217:A *41:6 4.82863e-05
12 *217:B *219:B1 8.70541e-05
13 *217:B *41:6 2.75145e-05
14 *40:12 *218:A_N 1.22676e-05
*RES
1 *214:X *41:6 2.05 
2 *41:6 *218:A_N 8.705 
3 *41:6 *219:B1 3.445 
*END

*D_NET *42 0.00029253
*CONN
*I *216:C1 I *D sky130_fd_sc_hd__o211a_1
*I *215:X O *D sky130_fd_sc_hd__a21o_1
*CAP
1 *216:C1 3.11957e-05
2 *215:X 3.11957e-05
3 *216:C1 *216:A1 0.000163204
4 *216:B1 *216:C1 6.69341e-05
*RES
1 *215:X *216:C1 4.685 
*END

*D_NET *43 0.00209746
*CONN
*I *222:A I *D sky130_fd_sc_hd__xnor2_1
*I *219:A1 I *D sky130_fd_sc_hd__a21o_1
*I *216:X O *D sky130_fd_sc_hd__o211a_1
*CAP
1 *222:A 0.000156104
2 *219:A1 8.81395e-05
3 *216:X 0.000327932
4 *43:8 0.000572176
5 *219:A1 *219:A2 9.50342e-06
6 *219:A1 *222:B 0.000183036
7 *222:A *222:B 0.000162325
8 *222:A *46:8 0
9 *43:8 *69:12 0.000181067
10 *43:8 *69:20 8.4279e-05
11 *218:A_N *219:A1 1.1561e-05
12 *26:10 *43:8 0.000321337
13 *40:12 *219:A1 0
14 *40:12 *222:A 0
*RES
1 *216:X *43:8 11.295 
2 *43:8 *219:A1 5.745 
3 *43:8 *222:A 6.54 
*END

*D_NET *44 0.00120438
*CONN
*I *219:A2 I *D sky130_fd_sc_hd__a21o_1
*I *218:B I *D sky130_fd_sc_hd__nand2b_1
*I *217:X O *D sky130_fd_sc_hd__or2_1
*CAP
1 *219:A2 1.60163e-05
2 *218:B 0.000114952
3 *217:X 0.000202715
4 *44:8 0.000333684
5 *218:B *222:B 7.67353e-05
6 *219:A2 *222:B 2.23485e-05
7 *217:A *44:8 3.23663e-05
8 *217:B *44:8 0.000237249
9 *218:A_N *218:B 0.000115001
10 *218:A_N *219:A2 4.38051e-05
11 *219:A1 *219:A2 9.50342e-06
*RES
1 *217:X *44:8 7.155 
2 *44:8 *218:B 6.15375 
3 *44:8 *219:A2 4.215 
*END

*D_NET *45 0.000984528
*CONN
*I *222:B I *D sky130_fd_sc_hd__xnor2_1
*I *218:Y O *D sky130_fd_sc_hd__nand2b_1
*CAP
1 *222:B 0.000210285
2 *218:Y 0.000210285
3 *222:B *46:8 0.000119512
4 *218:B *222:B 7.67353e-05
5 *219:A1 *222:B 0.000183036
6 *219:A2 *222:B 2.23485e-05
7 *222:A *222:B 0.000162325
*RES
1 *218:Y *222:B 12.66 
*END

*D_NET *46 0.00198271
*CONN
*I *242:A2 I *D sky130_fd_sc_hd__a311o_1
*I *220:B I *D sky130_fd_sc_hd__and2_1
*I *221:B I *D sky130_fd_sc_hd__xor2_1
*I *219:X O *D sky130_fd_sc_hd__a21o_1
*CAP
1 *242:A2 0.000123386
2 *220:B 0
3 *221:B 3.37585e-05
4 *219:X 0.000412411
5 *46:19 0.000331533
6 *46:8 0.000654315
7 *242:A2 *241:A1 0
8 *46:8 *236:A3 0
9 *46:8 *49:12 0
10 *46:19 *236:A3 0
11 *46:19 *236:B1 0
12 *221:A *46:19 0.000132713
13 *222:A *46:8 0
14 *222:B *46:8 0.000119512
15 *242:A1 *242:A2 9.43226e-05
16 *242:A1 *46:19 1.71013e-05
17 *26:10 *46:8 0
18 *36:21 *46:19 6.36578e-05
*RES
1 *219:X *46:8 11.1 
2 *46:8 *221:B 4.05 
3 *46:8 *46:19 4.44 
4 *46:19 *220:B 3.6 
5 *46:19 *242:A2 5.79 
*END

*D_NET *47 0.00146949
*CONN
*I *236:B1 I *D sky130_fd_sc_hd__a31o_1
*I *241:A1 I *D sky130_fd_sc_hd__o211a_1
*I *220:X O *D sky130_fd_sc_hd__and2_1
*CAP
1 *236:B1 0.000305791
2 *241:A1 0.000363854
3 *220:X 0
4 *47:4 0.000669646
5 *236:B1 *236:A2 5.53249e-06
6 *236:B1 *236:A3 3.09164e-05
7 *236:B1 *237:A 0
8 *236:B1 *237:B 0
9 *241:A1 *241:A2 9.50342e-06
10 *241:A1 *242:C1 2.42236e-05
11 *233:A *241:A1 0
12 *242:A1 *236:B1 0
13 *242:A1 *241:A1 6.00201e-05
14 *242:A2 *241:A1 0
15 *46:19 *236:B1 0
*RES
1 *220:X *47:4 1.6 
2 *47:4 *241:A1 10.19 
3 *47:4 *236:B1 9.995 
*END

*D_NET *48 0.000745517
*CONN
*I *224:A I *D sky130_fd_sc_hd__xnor2_1
*I *236:A2 I *D sky130_fd_sc_hd__a31o_1
*I *221:X O *D sky130_fd_sc_hd__xor2_1
*CAP
1 *224:A 3.0416e-05
2 *236:A2 8.1692e-05
3 *221:X 0.000171075
4 *48:8 0.000283183
5 *236:A2 *236:A3 5.50989e-05
6 *236:A2 *258:A 0
7 *236:A1 *236:A2 0.00011852
8 *236:B1 *236:A2 5.53249e-06
*RES
1 *221:X *48:8 4.135 
2 *48:8 *236:A2 7.595 
3 *48:8 *224:A 2.05 
*END

*D_NET *49 0.00139042
*CONN
*I *245:B I *D sky130_fd_sc_hd__or2_1
*I *236:A3 I *D sky130_fd_sc_hd__a31o_1
*I *223:B I *D sky130_fd_sc_hd__nand2_1
*I *222:Y O *D sky130_fd_sc_hd__xnor2_1
*CAP
1 *245:B 5.44092e-05
2 *236:A3 0.000332999
3 *223:B 0
4 *222:Y 0.000123289
5 *49:12 0.000451167
6 *49:8 0.000295866
7 *236:A1 *236:A3 4.66742e-05
8 *236:A2 *236:A3 5.50989e-05
9 *236:B1 *236:A3 3.09164e-05
10 *26:19 *236:A3 0
11 *26:19 *49:12 0
12 *46:8 *236:A3 0
13 *46:8 *49:12 0
14 *46:19 *236:A3 0
*RES
1 *222:Y *49:8 3.1 
2 *49:8 *49:12 3.635 
3 *49:12 *223:B 3.6 
4 *49:12 *236:A3 9.525 
5 *49:8 *245:B 2.395 
*END

*D_NET *50 0.00104536
*CONN
*I *224:B I *D sky130_fd_sc_hd__xnor2_1
*I *246:A I *D sky130_fd_sc_hd__and2_1
*I *223:Y O *D sky130_fd_sc_hd__nand2_1
*CAP
1 *224:B 0.000178314
2 *246:A 8.11823e-05
3 *223:Y 0.00015976
4 *50:8 0.000419255
5 *224:B *257:A 0
6 *246:A *257:A 0
7 P[4] *224:B 0
8 *223:A *50:8 5.05437e-05
9 *236:A1 *224:B 7.75412e-05
10 *26:10 *246:A 2.45182e-05
11 *26:19 *224:B 1.73877e-05
12 *26:19 *246:A 3.68596e-05
*RES
1 *223:Y *50:8 5.43 
2 *50:8 *246:A 5.235 
3 *50:8 *224:B 7.05 
*END

*D_NET *51 0.000426959
*CONN
*I *227:B1 I *D sky130_fd_sc_hd__a211o_1
*I *225:Y O *D sky130_fd_sc_hd__a31oi_1
*CAP
1 *227:B1 0.000120716
2 *225:Y 0.000120716
3 *227:B1 *200:B 5.83121e-06
4 *227:B1 *225:B1 2.75145e-05
5 *227:B1 *227:C1 4.18603e-06
6 *227:B1 *78:69 7.06865e-05
7 *227:B1 *82:15 1.12578e-05
8 *227:B1 *83:14 0
9 *225:A2 *227:B1 6.60514e-05
*RES
1 *225:Y *227:B1 9.375 
*END

*D_NET *52 0.00115922
*CONN
*I *244:C1 I *D sky130_fd_sc_hd__a211o_1
*I *227:C1 I *D sky130_fd_sc_hd__a211o_1
*I *226:X O *D sky130_fd_sc_hd__and4_1
*CAP
1 *244:C1 0.000334046
2 *227:C1 6.94235e-05
3 *226:X 3.38751e-05
4 *52:8 0.000437344
5 *227:C1 *54:8 0
6 *227:C1 *83:14 8.95605e-05
7 *244:C1 *239:B1 7.1932e-06
8 *244:C1 *54:8 0
9 *244:C1 *63:10 0
10 *244:C1 *64:12 4.70343e-05
11 *52:8 *79:79 4.82863e-05
12 P[7] *244:C1 0
13 *227:B1 *227:C1 4.18603e-06
14 *21:22 *227:C1 8.8266e-05
*RES
1 *226:X *52:8 4.05 
2 *52:8 *227:C1 5.265 
3 *52:8 *244:C1 9.315 
*END

*D_NET *53 0.00106678
*CONN
*I *239:A1 I *D sky130_fd_sc_hd__o21ai_1
*I *231:A I *D sky130_fd_sc_hd__xnor2_1
*I *227:X O *D sky130_fd_sc_hd__a211o_1
*CAP
1 *239:A1 8.88612e-05
2 *231:A 0
3 *227:X 0.000228473
4 *53:12 0.000317334
5 *239:A1 *231:B 8.65905e-05
6 *239:A1 *239:A2 7.3151e-05
7 *239:A1 *57:10 2.75229e-05
8 *53:12 *230:B 1.26626e-05
9 *53:12 *239:B1 0
10 *53:12 *56:10 4.70343e-05
11 *53:12 *79:10 0.000116853
12 *53:12 *79:79 4.66108e-05
13 *53:12 *83:14 2.16833e-05
*RES
1 *227:X *53:12 9.815 
2 *53:12 *231:A 1.6 
3 *53:12 *239:A1 3.43 
*END

*D_NET *54 0.00156556
*CONN
*I *239:B1 I *D sky130_fd_sc_hd__o21ai_1
*I *230:A I *D sky130_fd_sc_hd__nand2_1
*I *228:Y O *D sky130_fd_sc_hd__nand2_1
*CAP
1 *239:B1 0.000219845
2 *230:A 0
3 *228:Y 0.00023287
4 *54:8 0.000452714
5 *239:B1 *56:10 0.000139238
6 *239:B1 *57:10 3.00381e-05
7 *54:8 *230:B 0.000270062
8 *54:8 *78:47 5.12772e-05
9 *225:A2 *54:8 0.000162325
10 *227:C1 *54:8 0
11 *244:C1 *239:B1 7.1932e-06
12 *244:C1 *54:8 0
13 *53:12 *239:B1 0
*RES
1 *228:Y *54:8 9.315 
2 *54:8 *230:A 3.6 
3 *54:8 *239:B1 7.695 
*END

*D_NET *55 0.00139089
*CONN
*I *230:B I *D sky130_fd_sc_hd__nand2_1
*I *229:X O *D sky130_fd_sc_hd__or2_1
*CAP
1 *230:B 0.000278031
2 *229:X 0.000278031
3 *230:B *78:8 1.0124e-05
4 *230:B *79:10 0.000137571
5 *230:B *79:12 0.000206817
6 *230:B *79:18 0.000137571
7 *229:A *230:B 1.17309e-05
8 *229:B *230:B 4.82919e-05
9 *53:12 *230:B 1.26626e-05
10 *54:8 *230:B 0.000270062
*RES
1 *229:X *230:B 14.4 
*END

*D_NET *56 0.000652451
*CONN
*I *239:A2 I *D sky130_fd_sc_hd__o21ai_1
*I *231:B I *D sky130_fd_sc_hd__xnor2_1
*I *230:Y O *D sky130_fd_sc_hd__nand2_1
*CAP
1 *239:A2 5.642e-05
2 *231:B 3.64111e-05
3 *230:Y 5.22957e-05
4 *56:10 0.000145127
5 *239:A2 *57:10 1.61831e-05
6 *239:A1 *231:B 8.65905e-05
7 *239:A1 *239:A2 7.3151e-05
8 *239:B1 *56:10 0.000139238
9 *53:12 *56:10 4.70343e-05
*RES
1 *230:Y *56:10 7.235 
2 *56:10 *231:B 2.395 
3 *56:10 *239:A2 2.74 
*END

*D_NET *57 0.00189368
*CONN
*I *233:C I *D sky130_fd_sc_hd__nand3_1
*I *232:C I *D sky130_fd_sc_hd__and3_1
*I *234:B1 I *D sky130_fd_sc_hd__a21oi_1
*I *231:Y O *D sky130_fd_sc_hd__xnor2_1
*CAP
1 *233:C 7.44412e-05
2 *232:C 0
3 *234:B1 0
4 *231:Y 0.00053945
5 *57:21 0.000256414
6 *57:10 0.000721422
7 *233:C *59:10 0
8 *57:21 *60:10 4.77995e-05
9 *233:B *233:C 0.000104121
10 *233:B *57:21 7.6286e-05
11 *239:A1 *57:10 2.75229e-05
12 *239:A2 *57:10 1.61831e-05
13 *239:B1 *57:10 3.00381e-05
*RES
1 *231:Y *57:10 9.07 
2 *57:10 *234:B1 1.6 
3 *57:10 *57:21 2.7 
4 *57:21 *232:C 1.6 
5 *57:21 *233:C 3.145 
*END

*D_NET *58 0.00194411
*CONN
*I *235:A I *D sky130_fd_sc_hd__or2_1
*I *232:X O *D sky130_fd_sc_hd__and3_1
*CAP
1 *235:A 0.000328215
2 *232:X 0.000328215
3 *235:A *235:B 1.60203e-05
4 *235:A *242:A3 0.000111295