*SPEF "ieee 1481-1999"
*DESIGN "SARSA_RUIDO_e9"
*DATE "13:56:40 Tuesday September 16, 2025"
*VENDOR "The OpenROAD Project"
*PROGRAM "OpenROAD"
*VERSION "edf00dff99f6c40d67a30c0e22a8191c5d2ed9d6"
*DESIGN_FLOW "NAME_SCOPE LOCAL" "PIN_CAP NONE"
*DIVIDER /
*DELIMITER :
*BUS_DELIMITER []
*T_UNIT 1 NS
*C_UNIT 1 PF
*R_UNIT 1 OHM
*L_UNIT 1 HENRY

*NAME_MAP
*1 A[0]
*2 A[1]
*3 B[0]
*4 B[1]
*5 P[0]
*6 P[1]
*7 P[2]
*8 net8
*11 net1
*12 net2
*13 net3
*14 net4
*15 net5
*16 net6
*17 net7
*18 pp0
*19 pp1
*20 pp2
*21 FILLER_0_15
*22 FILLER_0_27
*23 FILLER_0_29
*24 FILLER_0_3
*25 FILLER_0_41
*26 FILLER_0_53
*27 FILLER_0_57
*28 FILLER_0_69
*29 FILLER_1_15
*30 FILLER_1_27
*31 FILLER_1_3
*32 FILLER_1_39
*33 FILLER_1_51
*34 FILLER_1_55
*35 FILLER_1_57
*36 FILLER_1_69
*37 FILLER_2_15
*38 FILLER_2_27
*39 FILLER_2_29
*40 FILLER_2_3
*41 FILLER_2_41
*42 FILLER_2_53
*43 FILLER_2_65
*44 FILLER_2_77
*45 FILLER_3_15
*46 FILLER_3_21
*47 FILLER_3_25
*48 FILLER_3_3
*49 FILLER_3_37
*50 FILLER_3_49
*51 FILLER_3_55
*52 FILLER_3_57
*53 FILLER_3_69
*54 FILLER_4_17
*55 FILLER_4_21
*56 FILLER_4_25
*57 FILLER_4_29
*58 FILLER_4_41
*59 FILLER_4_53
*60 FILLER_4_6
*61 FILLER_4_65
*62 FILLER_5_17
*63 FILLER_5_29
*64 FILLER_5_41
*65 FILLER_5_53
*66 FILLER_5_57
*67 FILLER_5_6
*68 FILLER_5_69
*69 FILLER_6_17
*70 FILLER_6_24
*71 FILLER_6_29
*72 FILLER_6_41
*73 FILLER_6_53
*74 FILLER_6_6
*75 FILLER_6_65
*76 FILLER_6_77
*77 FILLER_7_18
*78 FILLER_7_30
*79 FILLER_7_42
*80 FILLER_7_54
*81 FILLER_7_57
*82 FILLER_7_6
*83 FILLER_7_69
*84 FILLER_8_15
*85 FILLER_8_27
*86 FILLER_8_29
*87 FILLER_8_3
*88 FILLER_8_41
*89 FILLER_8_53
*90 FILLER_8_65
*91 FILLER_8_77
*92 FILLER_9_15
*93 FILLER_9_27
*94 FILLER_9_29
*95 FILLER_9_3
*96 FILLER_9_41
*97 FILLER_9_53
*98 FILLER_9_57
*99 FILLER_9_69
*100 PHY_EDGE_ROW_0_Left_10
*101 PHY_EDGE_ROW_0_Right_0
*102 PHY_EDGE_ROW_1_Left_11
*103 PHY_EDGE_ROW_1_Right_1
*104 PHY_EDGE_ROW_2_Left_12
*105 PHY_EDGE_ROW_2_Right_2
*106 PHY_EDGE_ROW_3_Left_13
*107 PHY_EDGE_ROW_3_Right_3
*108 PHY_EDGE_ROW_4_Left_14
*109 PHY_EDGE_ROW_4_Right_4
*110 PHY_EDGE_ROW_5_Left_15
*111 PHY_EDGE_ROW_5_Right_5
*112 PHY_EDGE_ROW_6_Left_16
*113 PHY_EDGE_ROW_6_Right_6
*114 PHY_EDGE_ROW_7_Left_17
*115 PHY_EDGE_ROW_7_Right_7
*116 PHY_EDGE_ROW_8_Left_18
*117 PHY_EDGE_ROW_8_Right_8
*118 PHY_EDGE_ROW_9_Left_19
*119 PHY_EDGE_ROW_9_Right_9
*120 SARSA_RUIDO_e9_8
*121 TAP_TAPCELL_ROW_0_20
*122 TAP_TAPCELL_ROW_0_21
*123 TAP_TAPCELL_ROW_1_22
*124 TAP_TAPCELL_ROW_2_23
*125 TAP_TAPCELL_ROW_3_24
*126 TAP_TAPCELL_ROW_4_25
*127 TAP_TAPCELL_ROW_5_26
*128 TAP_TAPCELL_ROW_6_27
*129 TAP_TAPCELL_ROW_7_28
*130 TAP_TAPCELL_ROW_8_29
*131 TAP_TAPCELL_ROW_9_30
*132 TAP_TAPCELL_ROW_9_31
*133 _0_
*134 _1_
*135 _2_
*136 _4_
*137 _5_
*138 _6_
*139 input1
*140 input2
*141 input3
*142 input4
*143 output5
*144 output6
*145 output7

*PORTS
A[0] I
A[1] I
B[0] I
B[1] I
P[0] O
P[1] O
P[2] O
P[3] O

*D_NET *1 0.000616196
*CONN
*P A[0] I
*I *139:A I *D sky130_fd_sc_hd__clkbuf_1
*CAP
1 A[0] 0.000297475
2 *139:A 0.000297475
3 *139:A *141:A 2.12457e-05
*RES
1 A[0] *139:A 49.8062 
*END

*D_NET *2 0.000733319
*CONN
*P A[1] I
*I *140:A I *D sky130_fd_sc_hd__clkbuf_1
*CAP
1 A[1] 0.000352215
2 *140:A 0
3 *2:17 0.000352215
4 *2:17 *4:17 2.88889e-05
*RES
1 A[1] *2:17 28.2148 
2 *2:17 *140:A 23 
*END

*D_NET *3 0.0005832
*CONN
*P B[0] I
*I *141:A I *D sky130_fd_sc_hd__clkbuf_1
*CAP
1 B[0] 0.000267021
2 *141:A 0.000267021
3 *141:A *4:17 2.79122e-05
4 *139:A *141:A 2.12457e-05
*RES
1 B[0] *141:A 47.7832 
*END

*D_NET *4 0.00071699
*CONN
*P B[1] I
*I *142:A I *D sky130_fd_sc_hd__clkbuf_1
*CAP
1 B[1] 0.000330094
2 *142:A 0
3 *4:17 0.000330094
4 *141:A *4:17 2.79122e-05
5 *2:17 *4:17 2.88889e-05
*RES
1 B[1] *4:17 27.8627 
2 *4:17 *142:A 23 
*END

*D_NET *5 0.000523884
*CONN
*P P[0] O
*I *143:X O *D sky130_fd_sc_hd__buf_2
*CAP
1 P[0] 0.000225862
2 *143:X 0.000225862
3 P[0] P[1] 0
4 P[0] P[3] 7.21596e-05
*RES
1 *143:X P[0] 47.1648 
*END

*D_NET *6 0.000615035
*CONN
*P P[1] O
*I *144:X O *D sky130_fd_sc_hd__buf_2
*CAP
1 P[1] 0.000223522
2 *144:X 0.000223522
3 P[1] P[2] 8.73764e-05
4 P[1] P[3] 8.06147e-05
5 P[0] P[1] 0
*RES
1 *144:X P[1] 47.8691 
*END

*D_NET *7 0.000687039
*CONN
*P P[2] O
*I *145:X O *D sky130_fd_sc_hd__buf_2
*CAP
1 P[2] 0.000267094
2 *145:X 0.000267094
3 P[2] *17:12 6.54744e-05
4 P[1] P[2] 8.73764e-05
*RES
1 *145:X P[2] 48.5734 
*END

*D_NET *8 0.000528309
*CONN
*P P[3] O
*I *120:LO O *D sky130_fd_sc_hd__conb_1
*CAP
1 P[3] 0.000187767
2 *120:LO 0.000187767
3 P[0] P[3] 7.21596e-05
4 P[1] P[3] 8.06147e-05
*RES
1 *120:LO P[3] 47.7832 
*END

*D_NET *11 0.00120537
*CONN
*I *134:B I *D sky130_fd_sc_hd__and2_1
*I *135:B I *D sky130_fd_sc_hd__and2_1
*I *139:X O *D sky130_fd_sc_hd__clkbuf_1
*CAP
1 *134:B 0
2 *135:B 0.000134941
3 *139:X 0.000465429
4 *11:10 0.00060037
5 *135:B *14:14 4.6318e-06
6 *135:B *16:8 0
7 *11:10 *15:8 0
*RES
1 *139:X *11:10 44.6907 
2 *11:10 *135:B 40.61 
3 *11:10 *134:B 38 
*END

*D_NET *12 0.000584497
*CONN
*I *133:B I *D sky130_fd_sc_hd__and2_1
*I *140:X O *D sky130_fd_sc_hd__clkbuf_1
*CAP
1 *133:B 0
2 *140:X 0.000292248
3 *12:10 0.000292248
*RES
1 *140:X *12:10 28.4271 
2 *12:10 *133:B 23 
*END

*D_NET *13 0.00045145
*CONN
*I *134:A I *D sky130_fd_sc_hd__and2_1
*I *141:X O *D sky130_fd_sc_hd__clkbuf_1
*CAP
1 *134:A 0.000225725
2 *141:X 0.000225725
*RES
1 *141:X *134:A 49.9771 
*END

*D_NET *14 0.000857144
*CONN
*I *135:A I *D sky130_fd_sc_hd__and2_1
*I *133:A I *D sky130_fd_sc_hd__and2_1
*I *142:X O *D sky130_fd_sc_hd__clkbuf_1
*CAP
1 *135:A 0
2 *133:A 0
3 *142:X 0.000236447
4 *14:14 0.000189809
5 *14:8 0.000426256
6 *14:14 *20:10 0
7 *135:B *14:14 4.6318e-06
*RES
1 *142:X *14:8 27.3293 
2 *14:8 *14:14 33.3143 
3 *14:14 *133:A 23 
4 *14:8 *135:A 23 
*END

*D_NET *15 0.00313259
*CONN
*I *143:A I *D sky130_fd_sc_hd__buf_2
*I *136:X O *D sky130_fd_sc_hd__clkbuf_1
*CAP
1 *143:A 0
2 *136:X 0.000129812
3 *15:12 0.00143648
4 *15:8 0.0015663
5 *11:10 *15:8 0
*RES
1 *136:X *15:8 40.2579 
2 *15:8 *15:12 40.8721 
3 *15:12 *143:A 23 
*END

*D_NET *16 0.00308912
*CONN
*I *144:A I *D sky130_fd_sc_hd__buf_2
*I *137:X O *D sky130_fd_sc_hd__clkbuf_1
*CAP
1 *144:A 0
2 *137:X 0.000113295
3 *16:12 0.00141084
4 *16:8 0.00152413
5 *16:8 *20:10 4.08537e-05
6 *135:B *16:8 0
*RES
1 *137:X *16:8 40.2579 
2 *16:8 *16:12 40.3957 
3 *16:12 *144:A 23 
*END

*D_NET *17 0.00339253
*CONN
*I *145:A I *D sky130_fd_sc_hd__buf_2
*I *138:X O *D sky130_fd_sc_hd__clkbuf_1
*CAP
1 *145:A 0
2 *138:X 0.00151371
3 *17:12 0.000149813
4 *17:6 0.00166353
5 P[2] *17:12 6.54744e-05
*RES
1 *138:X *17:6 48.3957 
2 *17:6 *17:12 33.3143 
3 *17:12 *145:A 23 
*END

*D_NET *18 0.000686557
*CONN
*I *138:A I *D sky130_fd_sc_hd__clkbuf_1
*I *133:X O *D sky130_fd_sc_hd__and2_1
*CAP
1 *138:A 0
2 *133:X 0.000343278
3 *18:10 0.000343278
*RES
1 *133:X *18:10 42.9093 
2 *18:10 *138:A 38 
*END

*D_NET *19 0.000272078
*CONN
*I *136:A I *D sky130_fd_sc_hd__clkbuf_1
*I *134:X O *D sky130_fd_sc_hd__and2_1
*CAP
1 *136:A 0.000136039
2 *134:X 0.000136039
*RES
1 *134:X *136:A 48.5271 
*END

*D_NET *20 0.000732303
*CONN
*I *137:A I *D sky130_fd_sc_hd__clkbuf_1
*I *135:X O *D sky130_fd_sc_hd__and2_1
*CAP
1 *137:A 0
2 *135:X 0.000345725
3 *20:10 0.000345725
4 *14:14 *20:10 0
5 *16:8 *20:10 4.08537e-05
*RES
1 *135:X *20:10 43.2614 
2 *20:10 *137:A 38 
*END
