*SPEF "ieee 1481-1999"
*DESIGN "mult4_SarsaNada_e6_SARSA_RUIDO_e9_SARSA_RUIDO_e9_SARSA_RUIDO_e9"
*DATE "18:49:16 Tuesday September 16, 2025"
*VENDOR "The OpenROAD Project"
*PROGRAM "OpenROAD"
*VERSION "edf00dff99f6c40d67a30c0e22a8191c5d2ed9d6"
*DESIGN_FLOW "NAME_SCOPE LOCAL" "PIN_CAP NONE"
*DIVIDER /
*DELIMITER :
*BUS_DELIMITER []
*T_UNIT 1 NS
*C_UNIT 1 PF
*R_UNIT 1 OHM
*L_UNIT 1 HENRY

*NAME_MAP
*1 A[0]
*2 A[1]
*3 A[2]
*4 A[3]
*5 B[0]
*6 B[1]
*7 B[2]
*8 B[3]
*9 P[0]
*10 P[1]
*11 P[2]
*12 P[3]
*13 P[4]
*14 P[5]
*15 P[6]
*16 P[7]
*19 _000_
*20 _001_
*21 _002_
*22 _003_
*23 _004_
*24 _005_
*25 _006_
*26 _007_
*27 _008_
*28 _009_
*29 _010_
*30 _011_
*31 _012_
*32 _013_
*33 _014_
*34 _015_
*35 _016_
*36 _017_
*37 _018_
*38 _019_
*39 _020_
*40 _021_
*41 _022_
*42 _023_
*43 _024_
*44 _025_
*45 _026_
*46 _027_
*47 _028_
*48 _029_
*49 _030_
*50 _031_
*51 _032_
*52 _033_
*53 _034_
*54 _035_
*55 _036_
*56 _037_
*57 _038_
*58 _039_
*59 _040_
*60 _041_
*61 _042_
*62 _043_
*63 _044_
*64 _045_
*65 _046_
*66 net1
*67 net10
*68 net11
*69 net12
*70 net13
*71 net14
*72 net15
*73 net16
*74 net2
*75 net3
*76 net4
*77 net5
*78 net6
*79 net7
*80 net8
*81 net9
*82 FILLER_0_11
*83 FILLER_0_27
*84 FILLER_0_3
*85 FILLER_0_54
*86 FILLER_0_66
*87 FILLER_0_78
*88 FILLER_1_22
*89 FILLER_1_3
*90 FILLER_1_35
*91 FILLER_1_48
*92 FILLER_1_64
*93 FILLER_1_76
*94 FILLER_1_80
*95 FILLER_1_9
*96 FILLER_2_13
*97 FILLER_2_25
*98 FILLER_2_3
*99 FILLER_2_37
*100 FILLER_2_42
*101 FILLER_2_49
*102 FILLER_2_61
*103 FILLER_3_20
*104 FILLER_3_50
*105 FILLER_3_57
*106 FILLER_3_61
*107 FILLER_3_68
*108 FILLER_3_80
*109 FILLER_4_10
*110 FILLER_4_22
*111 FILLER_4_29
*112 FILLER_4_37
*113 FILLER_4_45
*114 FILLER_4_53
*115 FILLER_4_74
*116 FILLER_4_80
*117 FILLER_5_11
*118 FILLER_5_21
*119 FILLER_5_3
*120 FILLER_5_41
*121 FILLER_5_53
*122 FILLER_5_57
*123 FILLER_5_63
*124 FILLER_5_67
*125 FILLER_6_13
*126 FILLER_6_29
*127 FILLER_6_33
*128 FILLER_6_43
*129 FILLER_6_62
*130 FILLER_6_74
*131 FILLER_7_21
*132 FILLER_7_3
*133 FILLER_7_33
*134 FILLER_7_47
*135 FILLER_7_55
*136 FILLER_7_57
*137 FILLER_7_64
*138 FILLER_7_75
*139 FILLER_7_9
*140 FILLER_8_18
*141 FILLER_8_26
*142 FILLER_8_29
*143 FILLER_8_3
*144 FILLER_8_60
*145 FILLER_8_72
*146 FILLER_8_80
*147 FILLER_9_13
*148 FILLER_9_21
*149 FILLER_9_29
*150 FILLER_9_38
*151 FILLER_9_53
*152 FILLER_9_57
*153 FILLER_9_63
*154 FILLER_9_7
*155 FILLER_9_75
*156 PHY_EDGE_ROW_0_Left_10
*157 PHY_EDGE_ROW_0_Right_0
*158 PHY_EDGE_ROW_1_Left_11
*159 PHY_EDGE_ROW_1_Right_1
*160 PHY_EDGE_ROW_2_Left_12
*161 PHY_EDGE_ROW_2_Right_2
*162 PHY_EDGE_ROW_3_Left_13
*163 PHY_EDGE_ROW_3_Right_3
*164 PHY_EDGE_ROW_4_Left_14
*165 PHY_EDGE_ROW_4_Right_4
*166 PHY_EDGE_ROW_5_Left_15
*167 PHY_EDGE_ROW_5_Right_5
*168 PHY_EDGE_ROW_6_Left_16
*169 PHY_EDGE_ROW_6_Right_6
*170 PHY_EDGE_ROW_7_Left_17
*171 PHY_EDGE_ROW_7_Right_7
*172 PHY_EDGE_ROW_8_Left_18
*173 PHY_EDGE_ROW_8_Right_8
*174 PHY_EDGE_ROW_9_Left_19
*175 PHY_EDGE_ROW_9_Right_9
*176 TAP_TAPCELL_ROW_0_20
*177 TAP_TAPCELL_ROW_0_21
*178 TAP_TAPCELL_ROW_1_22
*179 TAP_TAPCELL_ROW_2_23
*180 TAP_TAPCELL_ROW_3_24
*181 TAP_TAPCELL_ROW_4_25
*182 TAP_TAPCELL_ROW_5_26
*183 TAP_TAPCELL_ROW_6_27
*184 TAP_TAPCELL_ROW_7_28
*185 TAP_TAPCELL_ROW_8_29
*186 TAP_TAPCELL_ROW_9_30
*187 TAP_TAPCELL_ROW_9_31
*188 _047_
*189 _048_
*190 _049_
*191 _050_
*192 _051_
*193 _052_
*194 _053_
*195 _054_
*196 _055_
*197 _056_
*198 _057_
*199 _058_
*200 _059_
*201 _060_
*202 _061_
*203 _062_
*204 _063_
*205 _064_
*206 _065_
*207 _066_
*208 _067_
*209 _068_
*210 _069_
*211 _070_
*212 _071_
*213 _072_
*214 _073_
*215 _074_
*216 _075_
*217 _076_
*218 _077_
*219 _078_
*220 _079_
*221 _080_
*222 _081_
*223 _082_
*224 _083_
*225 _084_
*226 _085_
*227 _086_
*228 _087_
*229 _088_
*230 _089_
*231 _090_
*232 _091_
*233 _092_
*234 _093_
*235 _094_
*236 _095_
*237 _096_
*238 _097_
*239 _098_
*240 _099_
*241 _100_
*242 _101_
*243 input1
*244 input2
*245 input3
*246 input4
*247 input5
*248 input6
*249 input7
*250 input8
*251 output10
*252 output11
*253 output12
*254 output13
*255 output14
*256 output15
*257 output16
*258 output9

*PORTS
A[0] I
A[1] I
A[2] I
A[3] I
B[0] I
B[1] I
B[2] I
B[3] I
P[0] O
P[1] O
P[2] O
P[3] O
P[4] O
P[5] O
P[6] O
P[7] O

*D_NET *1 0.000829786
*CONN
*P A[0] I
*I *243:A I *D sky130_fd_sc_hd__dlymetal6s2s_1
*CAP
1 A[0] 0.000373259
2 *243:A 0.000373259
3 *243:A *244:A 4.82919e-05
4 *243:A *66:12 4.43871e-06
5 *243:A *74:12 3.05373e-05
*RES
1 A[0] *243:A 10.35 
*END

*D_NET *2 0.00138463
*CONN
*P A[1] I
*I *244:A I *D sky130_fd_sc_hd__clkbuf_2
*CAP
1 A[1] 0.000410494
2 *244:A 0.000410494
3 *244:A P[0] 0
4 *244:A *66:12 8.8266e-05
5 *244:A *66:26 0.000113237
6 *244:A *74:12 0.000313852
7 *243:A *244:A 4.82919e-05
*RES
1 A[1] *244:A 12.51 
*END

*D_NET *3 0.000492367
*CONN
*P A[2] I
*I *245:A I *D sky130_fd_sc_hd__dlymetal6s2s_1
*CAP
1 A[2] 0.00018552
2 *245:A 0.00018552
3 *245:A *246:A 7.71293e-05
4 *245:A *249:A 4.41979e-05
5 *245:A *75:10 0
*RES
1 A[2] *245:A 5.35677 
*END

*D_NET *4 0.00143376
*CONN
*P A[3] I
*I *246:A I *D sky130_fd_sc_hd__buf_1
*CAP
1 A[3] 0.00062388
2 *246:A 0.00062388
3 *246:A P[7] 9.50048e-05
4 *246:A *80:73 1.38716e-05
5 *245:A *246:A 7.71293e-05
*RES
1 A[3] *246:A 5.97577 
*END

*D_NET *5 0.0011862
*CONN
*P B[0] I
*I *247:A I *D sky130_fd_sc_hd__dlymetal6s2s_1
*CAP
1 B[0] 0.000476449
2 *247:A 0.000476449
3 *247:A P[0] 0
4 *247:A *201:A 2.51484e-05
5 *247:A *248:A 0
6 *247:A *74:25 4.86642e-05
7 *247:A *74:36 5.4003e-05
8 *247:A *74:55 8.59296e-05
9 *247:A *77:18 1.95608e-05
*RES
1 B[0] *247:A 12.495 
*END

*D_NET *6 0.0014706
*CONN
*P B[1] I
*I *248:A I *D sky130_fd_sc_hd__clkbuf_2
*CAP
1 B[1] 0.000647848
2 *248:A 0.000647848
3 *248:A P[1] 0
4 *248:A *199:A 4.82919e-05
5 *248:A *35:29 2.75229e-05
6 *248:A *78:8 6.9284e-05
7 *248:A *78:12 2.9804e-05
8 *247:A *248:A 0
*RES
1 B[1] *248:A 14.73 
*END

*D_NET *7 0.000935862
*CONN
*P B[2] I
*I *249:A I *D sky130_fd_sc_hd__buf_1
*CAP
1 B[2] 0.000353855
2 *249:A 0.000353855
3 *249:A *200:A 0
4 *249:A *250:A 2.85068e-05
5 *249:A *28:6 3.31103e-05
6 *249:A *79:8 0.000122337
7 *249:A *79:10 0
8 *245:A *249:A 4.41979e-05
*RES
1 B[2] *249:A 9.2037 
*END

*D_NET *8 0.000612842
*CONN
*P B[3] I
*I *250:A I *D sky130_fd_sc_hd__dlymetal6s2s_1
*CAP
1 B[3] 0.000292168
2 *250:A 0.000292168
3 *249:A *250:A 2.85068e-05
*RES
1 B[3] *250:A 7.3443 
*END

*D_NET *9 0.00129918
*CONN
*P P[0] O
*I *258:X O *D sky130_fd_sc_hd__buf_2
*CAP
1 P[0] 0.000592697
2 *258:X 0.000592697
3 P[0] *208:A 6.6005e-05
4 P[0] *24:38 4.77774e-05
5 *244:A P[0] 0
6 *247:A P[0] 0
*RES
1 *258:X P[0] 14.91 
*END

*D_NET *10 0.00165183
*CONN
*P P[1] O
*I *251:X O *D sky130_fd_sc_hd__buf_2
*CAP
1 P[1] 0.000625551
2 *251:X 0.000625551
3 P[1] *191:A2 2.65814e-06
4 P[1] *191:B1 2.78732e-05
5 P[1] *192:A 0.000151541
6 P[1] *192:B 0.000102024
7 P[1] *251:A 3.00381e-05
8 P[1] *20:6 8.65961e-05
9 *248:A P[1] 0
*RES
1 *251:X P[1] 15 
*END

*D_NET *11 0.000474799
*CONN
*P P[2] O
*I *252:X O *D sky130_fd_sc_hd__buf_2
*CAP
1 P[2] 0.000237399
2 *252:X 0.000237399
*RES
1 *252:X P[2] 5.16003 
*END

*D_NET *12 0.000529633
*CONN
*P P[3] O
*I *253:X O *D sky130_fd_sc_hd__buf_2
*CAP
1 P[3] 0.000218153
2 *253:X 0.000218153
3 P[3] P[4] 8.37409e-05
4 P[3] *253:A 9.58678e-06
5 P[3] *49:10 0
*RES
1 *253:X P[3] 4.9633 
*END

*D_NET *13 0.00046633
*CONN
*P P[4] O
*I *254:X O *D sky130_fd_sc_hd__buf_2
*CAP
1 P[4] 0.000191294
2 *254:X 0.000191294
3 P[4] *49:10 0
4 P[3] P[4] 8.37409e-05
*RES
1 *254:X P[4] 4.90503 
*END

*D_NET *14 0.000894056
*CONN
*P P[5] O
*I *255:X O *D sky130_fd_sc_hd__buf_2
*CAP
1 P[5] 0.000447028
2 *255:X 0.000447028
*RES
1 *255:X P[5] 11.55 
*END

*D_NET *15 0.000894056
*CONN
*P P[6] O
*I *256:X O *D sky130_fd_sc_hd__buf_2
*CAP
1 P[6] 0.000447028
2 *256:X 0.000447028
*RES
1 *256:X P[6] 11.55 
*END

*D_NET *16 0.000588519
*CONN
*P P[7] O
*I *257:X O *D sky130_fd_sc_hd__buf_2
*CAP
1 P[7] 0.000226489
2 *257:X 0.000226489
3 P[7] *257:A 4.05358e-05
4 *246:A P[7] 9.50048e-05
*RES
1 *257:X P[7] 5.92503 
*END

*D_NET *19 0.000530841
*CONN
*I *189:B I *D sky130_fd_sc_hd__and2_1
*I *188:X O *D sky130_fd_sc_hd__a21bo_1
*CAP
1 *189:B 0.000196981
2 *188:X 0.000196981
3 *189:B *188:A1 7.88258e-05
4 *189:B *189:A 9.50342e-06
5 *189:B *66:12 0
6 *189:B *66:26 4.85494e-05
*RES
1 *188:X *189:B 10.32 
*END

*D_NET *20 0.00279307
*CONN
*I *192:A I *D sky130_fd_sc_hd__and2_1
*I *209:A I *D sky130_fd_sc_hd__or3_1
*I *196:C I *D sky130_fd_sc_hd__and4_1
*I *212:B1 I *D sky130_fd_sc_hd__o21ai_1
*I *197:A3 I *D sky130_fd_sc_hd__a31o_1
*I *190:Y O *D sky130_fd_sc_hd__nand4_2
*CAP
1 *192:A 0.000144896
2 *209:A 8.85778e-05
3 *196:C 0
4 *212:B1 0.000136314
5 *197:A3 0
6 *190:Y 0.000290287
7 *20:21 0.00022828
8 *20:12 9.19664e-05
9 *20:10 0.000171915
10 *20:6 0.000518521
11 *209:A *26:8 6.20952e-05
12 *209:A *36:12 0.000113797
13 *209:A *78:8 0
14 *212:B1 *25:10 0
15 *212:B1 *26:8 0
16 *20:6 *191:A1 2.16917e-05
17 *20:6 *191:A2 2.8585e-06
18 *20:6 *191:B1 0.000270881
19 *20:10 *196:A 4.01019e-05
20 *20:10 *197:A1 6.71803e-06
21 *20:10 *78:36 6.57653e-06
22 *20:21 *196:A 9.66106e-05
23 *20:21 *196:B 0.000239813
24 *20:21 *196:D 2.30292e-05
25 P[1] *192:A 0.000151541
26 P[1] *20:6 8.65961e-05
*RES
1 *190:Y *20:6 5.5 
2 *20:6 *20:10 3.38 
3 *20:10 *20:12 2 
4 *20:12 *197:A3 1.6 
5 *20:12 *20:21 2.88 
6 *20:21 *212:B1 7.745 
7 *20:21 *196:C 1.6 
8 *20:10 *209:A 5.745 
9 *20:6 *192:A 7.7 
*END

*D_NET *21 0.000417414
*CONN
*I *192:B I *D sky130_fd_sc_hd__and2_1
*I *191:X O *D sky130_fd_sc_hd__a22o_1
*CAP
1 *192:B 0.000148411
2 *191:X 0.000148411
3 *192:B *191:A2 1.85674e-05
4 P[1] *192:B 0.000102024
*RES
1 *191:X *192:B 6.095 
*END

*D_NET *22 0.00150631
*CONN
*I *220:A1 I *D sky130_fd_sc_hd__a21o_1
*I *203:A I *D sky130_fd_sc_hd__or4b_2
*I *193:X O *D sky130_fd_sc_hd__and2_1
*CAP
1 *220:A1 0.00029832
2 *203:A 0.000236465
3 *193:X 0
4 *22:4 0.000534786
5 *203:A *193:A 0.000123955
6 *203:A *203:B 1.14169e-05
7 *203:A *203:C 2.43747e-05
8 *203:A *29:14 4.00541e-06
9 *220:A1 *220:A2 0.000272984
*RES
1 *193:X *22:4 1.6 
2 *22:4 *203:A 5.44 
3 *22:4 *220:A1 6.895 
*END

*D_NET *23 0.00375186
*CONN
*I *199:A I *D sky130_fd_sc_hd__xnor2_1
*I *204:B2 I *D sky130_fd_sc_hd__a2bb2o_1
*I *194:Y O *D sky130_fd_sc_hd__nand2_1
*CAP
1 *199:A 0.000806836
2 *204:B2 0.000358943
3 *194:Y 0
4 *23:4 0.00116578
5 *199:A *198:B 0.000158119
6 *199:A *199:B 8.8266e-05
7 *199:A *212:A1 0.000233786
8 *199:A *212:A2 1.61831e-05
9 *199:A *35:29 0.000137759
10 *199:A *77:40 5.83121e-06
11 *204:B2 *188:A1 4.13171e-05
12 *204:B2 *202:B 0.000179987
13 *204:B2 *24:14 2.23485e-05
14 *204:B2 *30:12 0.000116165
15 *204:B2 *77:40 2.25082e-05
16 *204:B2 *77:48 0.000327387
17 *204:B2 *78:74 2.23485e-05
18 *248:A *199:A 4.82919e-05
*RES
1 *194:Y *23:4 1.6 
2 *23:4 *204:B2 11.81 
3 *23:4 *199:A 13.465 
*END

*D_NET *24 0.00485496
*CONN
*I *196:D I *D sky130_fd_sc_hd__and4_1
*I *197:B1 I *D sky130_fd_sc_hd__a31o_1
*I *204:A1_N I *D sky130_fd_sc_hd__a2bb2o_1
*I *203:B I *D sky130_fd_sc_hd__or4b_2
*I *195:X O *D sky130_fd_sc_hd__and2_1
*CAP
1 *196:D 0.000215011
2 *197:B1 0
3 *204:A1_N 5.30315e-05
4 *203:B 0.000257289
5 *195:X 0.000191955
6 *24:38 0.000461769
7 *24:14 0.000539655
8 *24:6 0.000668048
9 *196:D *196:B 0.000290375
10 *196:D *36:12 8.8266e-05
11 *196:D *74:76 2.78253e-05
12 *203:B *203:C 2.91855e-05
13 *203:B *203:D_N 0.000196771
14 *203:B *204:A2_N 9.76407e-06
15 *204:A1_N *202:B 4.38051e-05
16 *204:A1_N *203:D_N 8.52883e-05
17 *204:A1_N *204:A2_N 4.89295e-05
18 *24:6 *201:B 0.00010978
19 *24:6 *80:16 0.000275548
20 *24:14 *188:A1 1.73877e-05
21 *24:14 *201:B 8.10587e-05
22 *24:14 *202:B 0.000138551
23 *24:14 *208:A 5.16418e-05
24 *24:38 *201:A 0.000119715
25 *24:38 *201:B 0.000122801
26 *24:38 *36:12 0.000160945
27 *24:38 *74:76 0.000439145
28 *24:38 *77:8 2.68464e-05
29 P[0] *24:38 4.77774e-05
30 *203:A *203:B 1.14169e-05
31 *204:B2 *24:14 2.23485e-05
32 *20:21 *196:D 2.30292e-05
*RES
1 *195:X *24:6 5.155 
2 *24:6 *24:14 6.485 
3 *24:14 *203:B 6.81 
4 *24:14 *204:A1_N 5.01 
5 *24:6 *24:38 7.02 
6 *24:38 *197:B1 1.6 
7 *24:38 *196:D 6.115 
*END

*D_NET *25 0.000692003
*CONN
*I *220:B1 I *D sky130_fd_sc_hd__a21o_1
*I *198:A_N I *D sky130_fd_sc_hd__and2b_1
*I *196:X O *D sky130_fd_sc_hd__and4_1
*CAP
1 *220:B1 0.000185386
2 *198:A_N 0
3 *196:X 0.000160615
4 *25:10 0.000346002
5 *220:B1 *220:A2 0
6 *220:B1 *40:8 0
7 *212:B1 *25:10 0
*RES
1 *196:X *25:10 5.685 
2 *25:10 *198:A_N 3.6 
3 *25:10 *220:B1 6.195 
*END

*D_NET *26 0.00186119
*CONN
*I *220:A2 I *D sky130_fd_sc_hd__a21o_1
*I *198:B I *D sky130_fd_sc_hd__and2b_1
*I *197:X O *D sky130_fd_sc_hd__a31o_1
*CAP
1 *220:A2 0.000202587
2 *198:B 0.000236374
3 *197:X 0.000112968
4 *26:8 0.000551929
5 *198:B *212:A2 0.0001249
6 *220:A2 *37:10 0.000139238
7 *220:A2 *78:66 0
8 *26:8 *78:66 0
9 *199:A *198:B 0.000158119
10 *209:A *26:8 6.20952e-05
11 *212:B1 *26:8 0
12 *220:A1 *220:A2 0.000272984
13 *220:B1 *220:A2 0
*RES
1 *197:X *26:8 5.49 
2 *26:8 *198:B 7.845 
3 *26:8 *220:A2 8.01 
*END

*D_NET *27 0.000153397
*CONN
*I *199:B I *D sky130_fd_sc_hd__xnor2_1
*I *198:X O *D sky130_fd_sc_hd__and2b_1
*CAP
1 *199:B 3.25657e-05
2 *198:X 3.25657e-05
3 *199:A *199:B 8.8266e-05
*RES
1 *198:X *199:B 3.995 
*END

*D_NET *28 0.00323565
*CONN
*I *205:B1_N I *D sky130_fd_sc_hd__a21bo_1
*I *206:A_N I *D sky130_fd_sc_hd__nand3b_2
*I *234:C I *D sky130_fd_sc_hd__and3_1
*I *239:A1 I *D sky130_fd_sc_hd__a21oi_1
*I *200:Y O *D sky130_fd_sc_hd__nand2_1
*CAP
1 *205:B1_N 0
2 *206:A_N 0.000133071
3 *234:C 0.0001343
4 *239:A1 0
5 *200:Y 0.000181473
6 *28:34 0.000657356
7 *28:12 0.000246886
8 *28:6 0.000818344
9 *206:A_N *55:10 8.52883e-05
10 *234:C *234:A 0.000136196
11 *28:6 *75:49 8.22234e-06
12 *28:6 *79:8 2.66586e-05
13 *28:12 *236:B 9.50342e-06
14 *28:12 *240:B1 2.60118e-05
15 *28:12 *61:10 0.000313457
16 *28:12 *80:73 0.00010431
17 *28:34 *225:C 0.000123225
18 *28:34 *75:49 1.10767e-05
19 *28:34 *75:62 0.000187163
20 *249:A *28:6 3.31103e-05
*RES
1 *200:Y *28:6 3.775 
2 *28:6 *28:12 7.675 
3 *28:12 *239:A1 1.6 
4 *28:12 *234:C 4.015 
5 *28:6 *28:34 8.175 
6 *28:34 *206:A_N 7.775 
7 *28:34 *205:B1_N 1.6 
*END

*D_NET *29 0.00128696
*CONN
*I *203:C I *D sky130_fd_sc_hd__or4b_2
*I *204:A2_N I *D sky130_fd_sc_hd__a2bb2o_1
*I *201:Y O *D sky130_fd_sc_hd__nand2_1
*CAP
1 *203:C 0.000112665
2 *204:A2_N 7.96308e-05
3 *201:Y 0.000216334
4 *29:14 0.00040863
5 *203:C *193:A 4.77757e-05
6 *203:C *32:10 1.16578e-05
7 *204:A2_N *203:D_N 6.83775e-05
8 *204:A2_N *32:10 8.696e-05
9 *29:14 *193:A 5.61585e-05
10 *29:14 *194:B 0
11 *29:14 *202:B 0
12 *29:14 *203:D_N 9.13949e-06
13 *29:14 *35:29 7.33728e-05
14 *203:A *203:C 2.43747e-05
15 *203:A *29:14 4.00541e-06
16 *203:B *203:C 2.91855e-05
17 *203:B *204:A2_N 9.76407e-06
18 *204:A1_N *204:A2_N 4.89295e-05
*RES
1 *201:Y *29:14 8.735 
2 *29:14 *204:A2_N 3.895 
3 *29:14 *203:C 3.895 
*END

*D_NET *30 0.0014304
*CONN
*I *204:B1 I *D sky130_fd_sc_hd__a2bb2o_1
*I *203:D_N I *D sky130_fd_sc_hd__or4b_2
*I *202:X O *D sky130_fd_sc_hd__and2_1
*CAP
1 *204:B1 0
2 *203:D_N 0.000166768
3 *202:X 0.000169827
4 *30:12 0.000336595
5 *203:D_N *202:B 4.41506e-05
6 *30:12 *35:29 0.000107627
7 *30:12 *78:72 3.25831e-05
8 *30:12 *78:74 9.71067e-05
9 *203:B *203:D_N 0.000196771
10 *204:A1_N *203:D_N 8.52883e-05
11 *204:A2_N *203:D_N 6.83775e-05
12 *204:B2 *30:12 0.000116165
13 *29:14 *203:D_N 9.13949e-06
*RES
1 *202:X *30:12 8.465 
2 *30:12 *203:D_N 5.44 
3 *30:12 *204:B1 1.6 
*END

*D_NET *31 0.00294237
*CONN
*I *230:A1 I *D sky130_fd_sc_hd__a21o_1
*I *229:A I *D sky130_fd_sc_hd__and3_1
*I *206:B I *D sky130_fd_sc_hd__nand3b_2
*I *205:A1 I *D sky130_fd_sc_hd__a21bo_1
*I *203:X O *D sky130_fd_sc_hd__or4b_2
*CAP
1 *230:A1 0.000243967
2 *229:A 0.00011695
3 *206:B 0
4 *205:A1 5.00118e-05
5 *203:X 0.000148716
6 *31:28 0.000497182
7 *31:19 0.000221248
8 *31:8 0.00028371
9 *205:A1 *75:62 2.95616e-05
10 *229:A *229:C 1.70906e-05
11 *229:A *233:A 0.000269923
12 *229:A *237:B1 2.86975e-05
13 *229:A *56:6 2.20014e-05
14 *230:A1 *229:C 0
15 *230:A1 *230:A2 8.6076e-05
16 *230:A1 *230:B1 2.20014e-05
17 *230:A1 *231:B 0.000155176
18 *230:A1 *237:B1 0.000120186
19 *230:A1 *55:10 0
20 *230:A1 *55:25 0
21 *230:A1 *57:10 0.000139933
22 *31:8 *206:C 3.09164e-05
23 *31:8 *32:10 0.000291365
24 *31:8 *75:62 2.66935e-05
25 *31:8 *75:73 0
26 *31:19 *206:C 8.76611e-05
27 *31:19 *216:B 0
28 *31:19 *33:12 0
29 *31:28 *216:B 0
30 *31:28 *231:B 5.33085e-05
31 *31:28 *55:10 0
*RES
1 *203:X *31:8 7.275 
2 *31:8 *205:A1 4.395 
3 *31:8 *31:19 1.89 
4 *31:19 *206:B 3.6 
5 *31:19 *31:28 2.4 
6 *31:28 *229:A 6.48 
7 *31:28 *230:A1 9.18 
*END

*D_NET *32 0.00118496
*CONN
*I *206:C I *D sky130_fd_sc_hd__nand3b_2
*I *205:A2 I *D sky130_fd_sc_hd__a21bo_1
*I *204:X O *D sky130_fd_sc_hd__a2bb2o_1
*CAP
1 *206:C 0.000131189
2 *205:A2 0
3 *204:X 0.000207013
4 *32:10 0.000338201
5 *32:10 *78:72 0
6 *203:C *32:10 1.16578e-05
7 *204:A2_N *32:10 8.696e-05
8 *31:8 *206:C 3.09164e-05
9 *31:8 *32:10 0.000291365
10 *31:19 *206:C 8.76611e-05
*RES
1 *204:X *32:10 7.815 
2 *32:10 *205:A2 3.6 
3 *32:10 *206:C 6.3 
*END

*D_NET *33 0.00157359
*CONN
*I *217:A1 I *D sky130_fd_sc_hd__a21oi_1
*I *215:A I *D sky130_fd_sc_hd__and3_1
*I *216:A I *D sky130_fd_sc_hd__nand3_1
*I *205:X O *D sky130_fd_sc_hd__a21bo_1
*CAP
1 *217:A1 3.94175e-05
2 *215:A 0
3 *216:A 0
4 *205:X 0.000380498
5 *33:21 0.000100549
6 *33:12 0.000441629
7 *217:A1 *216:C 9.90911e-05
8 *217:A1 *217:A2 0.00012657
9 *217:A1 *34:43 2.7441e-05
10 *217:A1 *42:14 0.000154049
11 *33:12 *216:B 1.22762e-05
12 *33:12 *75:62 9.18456e-06
13 *33:21 *216:B 4.82919e-05
14 *33:21 *216:C 3.25635e-05
15 *33:21 *217:A2 5.4155e-06
16 *33:21 *34:43 9.66106e-05
17 *31:19 *33:12 0
*RES
1 *205:X *33:12 10.19 
2 *33:12 *216:A 1.6 
3 *33:12 *33:21 1.845 
4 *33:21 *215:A 1.6 
5 *33:21 *217:A1 3.775 
*END

*D_NET *34 0.00329959
*CONN
*I *215:B I *D sky130_fd_sc_hd__and3_1
*I *217:A2 I *D sky130_fd_sc_hd__a21oi_1
*I *230:A2 I *D sky130_fd_sc_hd__a21o_1
*I *229:B I *D sky130_fd_sc_hd__and3_1
*I *216:B I *D sky130_fd_sc_hd__nand3_1
*I *206:Y O *D sky130_fd_sc_hd__nand3b_2
*CAP
1 *215:B 2.08101e-05
2 *217:A2 7.48846e-05
3 *230:A2 0.000295307
4 *229:B 6.49153e-05
5 *216:B 0.000130134
6 *206:Y 9.47756e-05
7 *34:43 0.000259406
8 *34:21 0.000408035
9 *34:8 0.000177946
10 *34:6 0.000258487
11 *216:B *55:10 1.42807e-05
12 *229:B *233:A 4.7003e-05
13 *230:A2 *230:B1 0.000488449
14 *230:A2 *233:A 0.000211632
15 *230:A2 *44:10 1.73877e-05
16 *230:A2 *55:10 3.36444e-05
17 *230:A2 *55:25 0.000144967
18 *34:6 *55:10 8.52845e-05
19 *34:21 *44:10 2.66935e-05
20 *34:21 *55:10 4.28674e-05
21 *217:A1 *217:A2 0.00012657
22 *217:A1 *34:43 2.7441e-05
23 *230:A1 *230:A2 8.6076e-05
24 *31:19 *216:B 0
25 *31:28 *216:B 0
26 *33:12 *216:B 1.22762e-05
27 *33:21 *216:B 4.82919e-05
28 *33:21 *217:A2 5.4155e-06
29 *33:21 *34:43 9.66106e-05
*RES
1 *206:Y *34:6 3.085 
2 *34:6 *34:8 2 
3 *34:8 *216:B 5.955 
4 *34:8 *34:21 1.125 
5 *34:21 *229:B 4.395 
6 *34:21 *230:A2 11.76 
7 *34:6 *34:43 3.21 
8 *34:43 *217:A2 3.355 
9 *34:43 *215:B 1.96 
*END

*D_NET *35 0.00453081
*CONN
*I *226:A I *D sky130_fd_sc_hd__xnor2_1
*I *209:B I *D sky130_fd_sc_hd__or3_1
*I *212:A1 I *D sky130_fd_sc_hd__o21ai_1
*I *235:A1 I *D sky130_fd_sc_hd__a21oi_1
*I *207:X O *D sky130_fd_sc_hd__and4_1
*CAP
1 *226:A 7.74016e-05
2 *209:B 6.32904e-05
3 *212:A1 9.65849e-05
4 *235:A1 0.000134322
5 *207:X 0.000251788
6 *35:29 0.000727992
7 *35:21 0.000695227
8 *35:10 0.000435818
9 *209:B *212:A2 1.80905e-05
10 *212:A1 *212:A2 0.000143953
11 *226:A *235:A2 0.000139245
12 *226:A *235:B1 0
13 *226:A *53:10 1.34361e-05
14 *235:A1 *235:A2 0.00016569
15 *35:10 *189:A 0
16 *35:10 *195:B 0.000203178
17 *35:10 *79:16 8.8266e-05
18 *35:21 *210:B 0
19 *35:21 *235:A2 2.92496e-05
20 *35:21 *235:B1 0
21 *35:29 *194:B 0.000236648
22 *35:29 *202:A 4.82919e-05
23 *35:29 *235:A2 4.66108e-05
24 *35:29 *77:40 5.16171e-05
25 *35:29 *77:48 0.000284041
26 *199:A *212:A1 0.000233786
27 *199:A *35:29 0.000137759
28 *248:A *35:29 2.75229e-05
29 *29:14 *35:29 7.33728e-05
30 *30:12 *35:29 0.000107627
*RES
1 *207:X *35:10 7.245 
2 *35:10 *235:A1 6.12 
3 *35:10 *35:21 0.87 
4 *35:21 *35:29 14.3 
5 *35:29 *212:A1 4.75 
6 *35:29 *209:B 2.665 
7 *35:21 *226:A 5.49 
*END

*D_NET *36 0.00235212
*CONN
*I *212:A2 I *D sky130_fd_sc_hd__o21ai_1
*I *209:C I *D sky130_fd_sc_hd__or3_1
*I *208:Y O *D sky130_fd_sc_hd__nand2_1
*CAP
1 *212:A2 9.23226e-05
2 *209:C 0
3 *208:Y 0.000691863
4 *36:12 0.000784185
5 *36:12 *201:B 4.24744e-05
6 *36:12 *258:A 4.82863e-05
7 *36:12 *77:8 2.68526e-05
8 *36:12 *78:8 0
9 *36:12 *78:66 0
10 *196:D *36:12 8.8266e-05
11 *198:B *212:A2 0.0001249
12 *199:A *212:A2 1.61831e-05
13 *209:A *36:12 0.000113797
14 *209:B *212:A2 1.80905e-05
15 *212:A1 *212:A2 0.000143953
16 *24:38 *36:12 0.000160945
*RES
1 *208:Y *36:12 14.675 
2 *36:12 *209:C 1.6 
3 *36:12 *212:A2 4.615 
*END

*D_NET *37 0.00160615
*CONN
*I *219:A1 I *D sky130_fd_sc_hd__a21o_1
*I *213:A I *D sky130_fd_sc_hd__nand3_1
*I *214:B1_N I *D sky130_fd_sc_hd__a21bo_1
*I *209:X O *D sky130_fd_sc_hd__or3_1
*CAP
1 *219:A1 2.91737e-05
2 *213:A 0.000134222
3 *214:B1_N 6.24269e-05
4 *209:X 0.000114201
5 *37:19 0.00032635
6 *37:10 0.000339583
7 *213:A *213:B 2.50049e-05
8 *213:A *213:C 7.21296e-06
9 *213:A *221:C 0
10 *213:A *40:8 2.03578e-05
11 *213:A *42:10 0.000141599
12 *213:A *48:10 0
13 *213:A *49:10 0
14 *214:B1_N *39:8 3.45588e-05
15 *219:A1 *219:A2 5.83121e-06
16 *219:A1 *219:B1 1.47347e-05
17 *37:10 *40:8 9.6227e-05
18 *37:10 *78:66 0
19 *37:19 *219:A2 7.10578e-05
20 *37:19 *39:8 3.45679e-05
21 *37:19 *39:15 9.80032e-06
22 *220:A2 *37:10 0.000139238
*RES
1 *209:X *37:10 8.51 
2 *37:10 *214:B1_N 2.395 
3 *37:10 *37:19 2.175 
4 *37:19 *213:A 8.51 
5 *37:19 *219:A1 2.05 
*END

*D_NET *38 0.00235739
*CONN
*I *211:A_N I *D sky130_fd_sc_hd__and3b_1
*I *226:B I *D sky130_fd_sc_hd__xnor2_1
*I *235:A2 I *D sky130_fd_sc_hd__a21oi_1
*I *210:X O *D sky130_fd_sc_hd__and4_1
*CAP
1 *211:A_N 0.000361304
2 *226:B 0
3 *235:A2 0.000241759
4 *210:X 0
5 *38:8 0.000327573
6 *38:4 0.000447118
7 *211:A_N *210:B 2.86623e-05
8 *211:A_N *228:B 1.22762e-05
9 *211:A_N *53:10 4.92096e-05
10 *211:A_N *76:47 9.26966e-05
11 *211:A_N *78:72 0.000226098
12 *235:A2 *210:B 0
13 *235:A2 *53:10 5.4003e-05
14 *235:A2 *61:10 2.75145e-05
15 *38:8 *210:D 9.2741e-05
16 *38:8 *53:10 1.56428e-05
17 *226:A *235:A2 0.000139245
18 *235:A1 *235:A2 0.00016569
19 *35:21 *235:A2 2.92496e-05
20 *35:29 *235:A2 4.66108e-05
*RES
1 *210:X *38:4 1.6 
2 *38:4 *38:8 1.845 
3 *38:8 *235:A2 11.06 
4 *38:8 *226:B 1.6 
5 *38:4 *211:A_N 13.115 
*END

*D_NET *39 0.00175884
*CONN
*I *219:B1 I *D sky130_fd_sc_hd__a21o_1
*I *213:B I *D sky130_fd_sc_hd__nand3_1
*I *214:A1 I *D sky130_fd_sc_hd__a21bo_1
*I *211:X O *D sky130_fd_sc_hd__and3b_1
*CAP
1 *219:B1 0.000116768
2 *213:B 8.15056e-05
3 *214:A1 0
4 *211:X 0.000280847
5 *39:15 0.000239727
6 *39:8 0.0003223
7 *213:B *213:C 0.000187766
8 *213:B *42:10 0.000141599
9 *219:B1 *219:A2 7.49327e-05
10 *219:B1 *241:A2 1.37328e-05
11 *39:8 *75:73 7.18771e-05
12 *39:8 *78:66 6.08241e-05
13 *39:15 *219:A2 4.82919e-05
14 *213:A *213:B 2.50049e-05
15 *214:B1_N *39:8 3.45588e-05
16 *219:A1 *219:B1 1.47347e-05
17 *37:19 *39:8 3.45679e-05
18 *37:19 *39:15 9.80032e-06
*RES
1 *211:X *39:8 6.895 
2 *39:8 *214:A1 1.6 
3 *39:8 *39:15 0.795 
4 *39:15 *213:B 8.195 
5 *39:15 *219:B1 3.79 
*END

*D_NET *40 0.00111873
*CONN
*I *213:C I *D sky130_fd_sc_hd__nand3_1
*I *219:A2 I *D sky130_fd_sc_hd__a21o_1
*I *214:A2 I *D sky130_fd_sc_hd__a21bo_1
*I *212:Y O *D sky130_fd_sc_hd__o21ai_1
*CAP
1 *213:C 0.000100959
2 *219:A2 2.94837e-05
3 *214:A2 0
4 *212:Y 0.000173086
5 *40:10 2.94837e-05
6 *40:8 0.000274045
7 *213:A *213:C 7.21296e-06
8 *213:A *40:8 2.03578e-05
9 *213:B *213:C 0.000187766
10 *219:A1 *219:A2 5.83121e-06
11 *219:B1 *219:A2 7.49327e-05
12 *220:B1 *40:8 0
13 *37:10 *40:8 9.6227e-05
14 *37:19 *219:A2 7.10578e-05
15 *39:15 *219:A2 4.82919e-05
*RES
1 *212:Y *40:8 7.02 
2 *40:8 *40:10 2 
3 *40:10 *214:A2 1.6 
4 *40:10 *219:A2 2.74 
5 *40:8 *213:C 6 
*END

*D_NET *41 0.00161157
*CONN
*I *221:A I *D sky130_fd_sc_hd__nand3_2
*I *241:A1 I *D sky130_fd_sc_hd__a21o_1
*I *213:Y O *D sky130_fd_sc_hd__nand3_1
*CAP
1 *221:A 3.90519e-05
2 *241:A1 0.000212521
3 *213:Y 0.000393389
4 *41:8 0.000644962
5 *221:A *221:B 0
6 *221:A *242:B 2.9664e-05
7 *241:A1 *221:B 4.92062e-05
8 *241:A1 *221:C 0
9 *241:A1 *241:A2 3.26889e-05
10 *241:A1 *242:B 7.51527e-05
11 *41:8 *242:A 6.6564e-05
12 *41:8 *49:10 6.83659e-05
*RES
1 *213:Y *41:8 8.19 
2 *41:8 *241:A1 7.515 
3 *41:8 *221:A 4.47 
*END

*D_NET *42 0.00140933
*CONN
*I *217:B1 I *D sky130_fd_sc_hd__a21oi_1
*I *215:C I *D sky130_fd_sc_hd__and3_1
*I *216:C I *D sky130_fd_sc_hd__nand3_1
*I *214:X O *D sky130_fd_sc_hd__a21bo_1
*CAP
1 *217:B1 0
2 *215:C 0
3 *216:C 0.00010416
4 *214:X 0.000140619
5 *42:14 0.000279114
6 *42:10 0.000315573
7 *42:10 *49:10 0
8 *42:14 *45:10 9.60582e-07
9 *213:A *42:10 0.000141599
10 *213:B *42:10 0.000141599
11 *217:A1 *216:C 9.90911e-05
12 *217:A1 *42:14 0.000154049
13 *33:21 *216:C 3.25635e-05
*RES
1 *214:X *42:10 8.765 
2 *42:10 *42:14 2.4375 
3 *42:14 *216:C 3.1975 
4 *42:14 *215:C 1.6 
5 *42:10 *217:B1 1.6 
*END

*D_NET *43 0.000406424
*CONN
*I *218:A I *D sky130_fd_sc_hd__nor2_1
*I *215:X O *D sky130_fd_sc_hd__and3_1
*CAP
1 *218:A 0.000203212
2 *215:X 0.000203212
3 *218:A *44:10 0
4 *218:A *45:10 0
*RES
1 *215:X *218:A 10.32 
*END

*D_NET *44 0.00138729
*CONN
*I *232:B1 I *D sky130_fd_sc_hd__o21a_1
*I *237:B2 I *D sky130_fd_sc_hd__o221ai_4
*I *216:Y O *D sky130_fd_sc_hd__nand3_1
*CAP
1 *232:B1 0.000153663
2 *237:B2 0.0001825
3 *216:Y 0.000145374
4 *44:10 0.000481537
5 *232:B1 *233:B 5.03301e-05
6 *232:B1 *237:A1 8.01019e-05
7 *237:B2 *233:B 2.65814e-06
8 *237:B2 *237:A2 8.40269e-05
9 *44:10 *233:A 0.000163019
10 *218:A *44:10 0
11 *230:A2 *44:10 1.73877e-05
12 *34:21 *44:10 2.66935e-05
*RES
1 *216:Y *44:10 8.765 
2 *44:10 *237:B2 4.135 
3 *44:10 *232:B1 4.48 
*END

*D_NET *45 0.00088054
*CONN
*I *232:A1 I *D sky130_fd_sc_hd__o21a_1
*I *218:B I *D sky130_fd_sc_hd__nor2_1
*I *217:Y O *D sky130_fd_sc_hd__a21oi_1
*CAP
1 *232:A1 0.000178248
2 *218:B 0
3 *217:Y 0.000179942
4 *45:10 0.00035819
5 *232:A1 *49:23 0.000163199
6 *45:10 *49:10 0
7 *45:10 *49:23 0
8 *218:A *45:10 0
9 *42:14 *45:10 9.60582e-07
*RES
1 *217:Y *45:10 6.03 
2 *45:10 *218:B 3.6 
3 *45:10 *232:A1 6.975 
*END

*D_NET *46 0.000453256
*CONN
*I *222:A I *D sky130_fd_sc_hd__xnor2_1
*I *218:Y O *D sky130_fd_sc_hd__nor2_1
*CAP
1 *222:A 0.000226628
2 *218:Y 0.000226628
3 *222:A *254:A 0
*RES
1 *218:Y *222:A 6.335 
*END

*D_NET *47 0.000725859
*CONN
*I *221:B I *D sky130_fd_sc_hd__nand3_2
*I *241:A2 I *D sky130_fd_sc_hd__a21o_1
*I *219:X O *D sky130_fd_sc_hd__a21o_1
*CAP
1 *221:B 0.000169041
2 *241:A2 3.674e-05
3 *219:X 4.08925e-05
4 *47:6 0.000246674
5 *221:B *221:C 0.000136884
6 *219:B1 *241:A2 1.37328e-05
7 *221:A *221:B 0
8 *241:A1 *221:B 4.92062e-05
9 *241:A1 *241:A2 3.26889e-05
*RES
1 *219:X *47:6 2.05 
2 *47:6 *241:A2 2.47 
3 *47:6 *221:B 8.375 
*END

*D_NET *48 0.000956152
*CONN
*I *241:B1 I *D sky130_fd_sc_hd__a21o_1
*I *221:C I *D sky130_fd_sc_hd__nand3_2
*I *220:X O *D sky130_fd_sc_hd__a21o_1
*CAP
1 *241:B1 0
2 *221:C 0.000170344
3 *220:X 0.000223829
4 *48:10 0.000394173
5 *221:C *49:10 3.09233e-05
6 *213:A *221:C 0
7 *213:A *48:10 0
8 *221:B *221:C 0.000136884
9 *241:A1 *221:C 0
*RES
1 *220:X *48:10 6.465 
2 *48:10 *221:C 6.45 
3 *48:10 *241:B1 3.6 
*END

*D_NET *49 0.00216885
*CONN
*I *242:A I *D sky130_fd_sc_hd__and2_1
*I *232:A2 I *D sky130_fd_sc_hd__o21a_1
*I *237:A1 I *D sky130_fd_sc_hd__o221ai_4
*I *222:B I *D sky130_fd_sc_hd__xnor2_1
*I *221:Y O *D sky130_fd_sc_hd__nand3_2
*CAP
1 *242:A 7.54824e-05
2 *232:A2 0
3 *237:A1 0.000103163
4 *222:B 0
5 *221:Y 0
6 *49:23 0.000473968
7 *49:10 0.000686182
8 *49:4 0.000390858
9 *237:A1 *233:B 3.00381e-05
10 P[3] *49:10 0
11 P[4] *49:10 0
12 *213:A *49:10 0
13 *221:C *49:10 3.09233e-05
14 *232:A1 *49:23 0.000163199
15 *232:B1 *237:A1 8.01019e-05
16 *41:8 *242:A 6.6564e-05
17 *41:8 *49:10 6.83659e-05
18 *42:10 *49:10 0
19 *45:10 *49:10 0
20 *45:10 *49:23 0
*RES
1 *221:Y *49:4 1.6 
2 *49:4 *49:10 7.325 
3 *49:10 *222:B 3.6 
4 *49:10 *49:23 8.3 
5 *49:23 *237:A1 3.79 
6 *49:23 *232:A2 1.6 
7 *49:4 *242:A 3.085 
*END

*D_NET *50 0.000169024
*CONN
*I *239:B1 I *D sky130_fd_sc_hd__a21oi_1
*I *223:Y O *D sky130_fd_sc_hd__nand2_1
*CAP
1 *239:B1 4.98985e-05
2 *223:Y 4.98985e-05
3 *239:B1 *234:A 4.35034e-05
4 *239:B1 *234:B 1.17409e-05
5 *239:B1 *80:73 1.39832e-05
*RES
1 *223:Y *239:B1 3.995 
*END

*D_NET *51 0.00102664
*CONN
*I *227:A_N I *D sky130_fd_sc_hd__and4bb_1
*I *225:A_N I *D sky130_fd_sc_hd__and3b_1
*I *224:X O *D sky130_fd_sc_hd__and4_1
*CAP
1 *227:A_N 0.000138523
2 *225:A_N 4.47169e-05
3 *224:X 9.64219e-05
4 *51:6 0.000279662
5 *225:A_N *61:10 4.40899e-05
6 *225:A_N *80:58 0.000116165
7 *227:A_N *224:C 4.26986e-05
8 *227:A_N *227:B_N 1.83847e-05
9 *227:A_N *76:47 8.73389e-06
10 *227:A_N *80:54 3.66286e-05
11 *51:6 *80:54 0.000200615
*RES
1 *224:X *51:6 3.43 
2 *51:6 *225:A_N 6.98 
3 *51:6 *227:A_N 3.775 
*END

*D_NET *52 0.000398996
*CONN
*I *228:A I *D sky130_fd_sc_hd__xor2_2
*I *225:X O *D sky130_fd_sc_hd__and3b_1
*CAP
1 *228:A 0.000134458
2 *225:X 0.000134458
3 *228:A *228:B 0.00011852
4 *228:A *76:28 1.1561e-05
*RES
1 *225:X *228:A 9.63 
*END

*D_NET *53 0.00168762
*CONN
*I *228:B I *D sky130_fd_sc_hd__xor2_2
*I *227:B_N I *D sky130_fd_sc_hd__and4bb_1
*I *226:Y O *D sky130_fd_sc_hd__xnor2_1
*CAP
1 *228:B 0.000169543
2 *227:B_N 1.30736e-05
3 *226:Y 0.000285269
4 *53:10 0.000467885
5 *227:B_N *76:47 4.82919e-05
6 *228:B *76:28 0.000373486
7 *53:10 *210:B 0
8 *53:10 *210:D 1.76793e-05
9 *53:10 *235:B1 0
10 *53:10 *76:28 3.09233e-05
11 *211:A_N *228:B 1.22762e-05
12 *211:A_N *53:10 4.92096e-05
13 *226:A *53:10 1.34361e-05
14 *227:A_N *227:B_N 1.83847e-05
15 *228:A *228:B 0.00011852
16 *235:A2 *53:10 5.4003e-05
17 *38:8 *53:10 1.56428e-05
*RES
1 *226:Y *53:10 7.83 
2 *53:10 *227:B_N 4.05 
3 *53:10 *228:B 6.44 
*END

*D_NET *54 0.000609504
*CONN
*I *235:B1 I *D sky130_fd_sc_hd__a21oi_1
*I *227:X O *D sky130_fd_sc_hd__and4bb_1
*CAP
1 *235:B1 0.000158343
2 *227:X 0.000158343