*SPEF "ieee 1481-1999"
*DESIGN "mult4_SARSA_RUIDO_e9_SARSA_RUIDO_e9_SarsaNada_e6_SARSA_RUIDO_e9"
*DATE "14:27:34 Tuesday September 16, 2025"
*VENDOR "The OpenROAD Project"
*PROGRAM "OpenROAD"
*VERSION "edf00dff99f6c40d67a30c0e22a8191c5d2ed9d6"
*DESIGN_FLOW "NAME_SCOPE LOCAL" "PIN_CAP NONE"
*DIVIDER /
*DELIMITER :
*BUS_DELIMITER []
*T_UNIT 1 NS
*C_UNIT 1 PF
*R_UNIT 1 OHM
*L_UNIT 1 HENRY

*NAME_MAP
*1 A[0]
*2 A[1]
*3 A[2]
*4 A[3]
*5 B[0]
*6 B[1]
*7 B[2]
*8 B[3]
*9 P[0]
*10 P[1]
*11 P[2]
*12 P[3]
*13 P[4]
*14 P[5]
*15 P[6]
*16 P[7]
*19 _00_
*20 _01_
*21 _02_
*22 _03_
*23 _04_
*24 _05_
*25 _06_
*26 _07_
*27 _08_
*28 _09_
*29 _10_
*30 _11_
*31 _12_
*32 _13_
*33 _14_
*34 _15_
*35 _16_
*36 _17_
*37 _18_
*38 _19_
*39 _20_
*40 _21_
*41 _22_
*42 _23_
*43 _24_
*44 _25_
*45 _26_
*46 _27_
*47 _28_
*48 _29_
*49 _30_
*50 _31_
*51 mul_ll\.pp1
*52 mul_ll\.pp2
*53 net1
*54 net10
*55 net11
*56 net12
*57 net13
*58 net14
*59 net15
*60 net16
*61 net2
*62 net3
*63 net4
*64 net5
*65 net6
*66 net7
*67 net8
*68 net9
*69 FILLER_0_15
*70 FILLER_0_3
*71 FILLER_0_36
*72 FILLER_0_41
*73 FILLER_0_55
*74 FILLER_0_67
*75 FILLER_0_79
*76 FILLER_1_15
*77 FILLER_1_3
*78 FILLER_1_38
*79 FILLER_1_48
*80 FILLER_1_74
*81 FILLER_2_21
*82 FILLER_2_27
*83 FILLER_2_35
*84 FILLER_2_43
*85 FILLER_2_47
*86 FILLER_2_68
*87 FILLER_2_7
*88 FILLER_2_76
*89 FILLER_3_11
*90 FILLER_3_24
*91 FILLER_3_29
*92 FILLER_3_3
*93 FILLER_3_38
*94 FILLER_3_50
*95 FILLER_3_57
*96 FILLER_3_70
*97 FILLER_3_78
*98 FILLER_4_13
*99 FILLER_4_19
*100 FILLER_4_26
*101 FILLER_4_34
*102 FILLER_4_46
*103 FILLER_4_51
*104 FILLER_4_61
*105 FILLER_4_7
*106 FILLER_4_73
*107 FILLER_5_13
*108 FILLER_5_25
*109 FILLER_5_37
*110 FILLER_5_44
*111 FILLER_5_55
*112 FILLER_5_62
*113 FILLER_5_74
*114 FILLER_6_11
*115 FILLER_6_20
*116 FILLER_6_29
*117 FILLER_6_3
*118 FILLER_6_45
*119 FILLER_6_57
*120 FILLER_6_65
*121 FILLER_6_77
*122 FILLER_7_15
*123 FILLER_7_27
*124 FILLER_7_39
*125 FILLER_7_51
*126 FILLER_7_55
*127 FILLER_7_57
*128 FILLER_7_61
*129 FILLER_7_7
*130 FILLER_7_76
*131 FILLER_8_15
*132 FILLER_8_27
*133 FILLER_8_29
*134 FILLER_8_3
*135 FILLER_8_41
*136 FILLER_8_53
*137 FILLER_8_61
*138 FILLER_8_70
*139 FILLER_8_78
*140 FILLER_9_19
*141 FILLER_9_27
*142 FILLER_9_29
*143 FILLER_9_41
*144 FILLER_9_53
*145 FILLER_9_57
*146 FILLER_9_69
*147 FILLER_9_7
*148 PHY_EDGE_ROW_0_Left_10
*149 PHY_EDGE_ROW_0_Right_0
*150 PHY_EDGE_ROW_1_Left_11
*151 PHY_EDGE_ROW_1_Right_1
*152 PHY_EDGE_ROW_2_Left_12
*153 PHY_EDGE_ROW_2_Right_2
*154 PHY_EDGE_ROW_3_Left_13
*155 PHY_EDGE_ROW_3_Right_3
*156 PHY_EDGE_ROW_4_Left_14
*157 PHY_EDGE_ROW_4_Right_4
*158 PHY_EDGE_ROW_5_Left_15
*159 PHY_EDGE_ROW_5_Right_5
*160 PHY_EDGE_ROW_6_Left_16
*161 PHY_EDGE_ROW_6_Right_6
*162 PHY_EDGE_ROW_7_Left_17
*163 PHY_EDGE_ROW_7_Right_7
*164 PHY_EDGE_ROW_8_Left_18
*165 PHY_EDGE_ROW_8_Right_8
*166 PHY_EDGE_ROW_9_Left_19
*167 PHY_EDGE_ROW_9_Right_9
*168 TAP_TAPCELL_ROW_0_20
*169 TAP_TAPCELL_ROW_0_21
*170 TAP_TAPCELL_ROW_1_22
*171 TAP_TAPCELL_ROW_2_23
*172 TAP_TAPCELL_ROW_3_24
*173 TAP_TAPCELL_ROW_4_25
*174 TAP_TAPCELL_ROW_5_26
*175 TAP_TAPCELL_ROW_6_27
*176 TAP_TAPCELL_ROW_7_28
*177 TAP_TAPCELL_ROW_8_29
*178 TAP_TAPCELL_ROW_9_30
*179 TAP_TAPCELL_ROW_9_31
*180 _32_
*181 _33_
*182 _34_
*183 _35_
*184 _36_
*185 _37_
*186 _38_
*187 _39_
*188 _40_
*189 _41_
*190 _42_
*191 _43_
*192 _44_
*193 _45_
*194 _46_
*195 _47_
*196 _48_
*197 _49_
*198 _50_
*199 _51_
*200 _52_
*201 _53_
*202 _54_
*203 _55_
*204 _56_
*205 _57_
*206 _58_
*207 _59_
*208 _60_
*209 _61_
*210 _62_
*211 _63_
*212 _64_
*213 _65_
*214 _66_
*215 _67_
*216 _68_
*217 _69_
*218 _70_
*219 _71_
*220 _72_
*221 _73_
*222 input1
*223 input2
*224 input3
*225 input4
*226 input5
*227 input6
*228 input7
*229 input8
*230 output10
*231 output11
*232 output12
*233 output13
*234 output14
*235 output15
*236 output16
*237 output9

*PORTS
A[0] I
A[1] I
A[2] I
A[3] I
B[0] I
B[1] I
B[2] I
B[3] I
P[0] O
P[1] O
P[2] O
P[3] O
P[4] O
P[5] O
P[6] O
P[7] O

*D_NET *1 0.00120294
*CONN
*P A[0] I
*I *222:A I *D sky130_fd_sc_hd__dlymetal6s2s_1
*CAP
1 A[0] 0.000524892
2 *222:A 0.000524892
3 *222:A *226:A 0
4 *222:A *64:91 0.000153155
*RES
1 A[0] *222:A 49.7036 
*END

*D_NET *2 0.000983312
*CONN
*P A[1] I
*I *223:A I *D sky130_fd_sc_hd__buf_1
*CAP
1 A[1] 0.000434408
2 *223:A 0.000434408
3 *223:A *183:D 0
4 *223:A *226:A 0
5 *223:A *7:11 0
6 *223:A *53:53 8.80335e-05
7 *223:A *65:41 2.64616e-05
*RES
1 A[1] *223:A 47.3214 
*END

*D_NET *3 0.000683588
*CONN
*P A[2] I
*I *224:A I *D sky130_fd_sc_hd__dlymetal6s2s_1
*CAP
1 A[2] 0.000327349
2 *224:A 0
3 *3:17 0.000327349
4 *3:17 P[7] 0
5 *3:17 *4:17 2.88889e-05
6 *3:17 *16:14 0
7 *3:17 *62:8 0
*RES
1 A[2] *3:17 27.5105 
2 *3:17 *224:A 23 
*END

*D_NET *4 0.000786791
*CONN
*P A[3] I
*I *225:A I *D sky130_fd_sc_hd__clkbuf_2
*CAP
1 A[3] 0.000365885
2 *225:A 0
3 *4:17 0.000365885
4 *4:17 *6:17 2.61329e-05
5 *4:17 *62:8 0
6 *3:17 *4:17 2.88889e-05
*RES
1 A[3] *4:17 28.3391 
2 *4:17 *225:A 23 
*END

*D_NET *5 0.000874548
*CONN
*P B[0] I
*I *226:A I *D sky130_fd_sc_hd__dlymetal6s2s_1
*CAP
1 B[0] 0.000437274
2 *226:A 0.000437274
3 *226:A *61:10 0
4 *222:A *226:A 0
5 *223:A *226:A 0
*RES
1 B[0] *226:A 47.4664 
*END

*D_NET *6 0.000717883
*CONN
*P B[1] I
*I *227:A I *D sky130_fd_sc_hd__clkbuf_2
*CAP
1 B[1] 0.000345875
2 *227:A 0
3 *6:17 0.000345875
4 *4:17 *6:17 2.61329e-05
*RES
1 B[1] *6:17 27.6348 
2 *6:17 *227:A 23 
*END

*D_NET *7 0.00149068
*CONN
*P B[2] I
*I *228:A I *D sky130_fd_sc_hd__buf_1
*CAP
1 B[2] 0.000608058
2 *228:A 0
3 *7:11 0.000608058
4 *7:11 P[2] 9.84851e-05
5 *7:11 *231:A 5.67058e-05
6 *7:11 *61:24 5.41288e-05
7 *7:11 *66:8 6.52495e-05
8 *223:A *7:11 0
*RES
1 B[2] *7:11 28.2779 
2 *7:11 *228:A 23 
*END

*D_NET *8 0.000703301
*CONN
*P B[3] I
*I *229:A I *D sky130_fd_sc_hd__clkbuf_2
*CAP
1 B[3] 0.000307962
2 *229:A 0.000307962
3 *229:A P[3] 8.73764e-05
4 *229:A P[4] 0
*RES
1 B[3] *229:A 48.9255 
*END

*D_NET *9 0.000550792
*CONN
*P P[0] O
*I *237:X O *D sky130_fd_sc_hd__buf_2
*CAP
1 P[0] 0.000192119
2 *237:X 0.000192119
3 P[0] P[1] 7.91783e-05
4 P[0] P[3] 8.73764e-05
5 P[0] *68:8 0
*RES
1 *237:X P[0] 47.5169 
*END

*D_NET *10 0.000531345
*CONN
*P P[1] O
*I *230:X O *D sky130_fd_sc_hd__buf_2
*CAP
1 P[1] 0.000226083
2 *230:X 0.000226083
3 P[0] P[1] 7.91783e-05
*RES
1 *230:X P[1] 47.1648 
*END

*D_NET *11 0.00104849
*CONN
*P P[2] O
*I *231:X O *D sky130_fd_sc_hd__buf_2
*CAP
1 P[2] 0.000475
2 *231:X 0.000475
3 *7:11 P[2] 9.84851e-05
*RES
1 *231:X P[2] 47.86 
*END

*D_NET *12 0.000697399
*CONN
*P P[3] O
*I *232:X O *D sky130_fd_sc_hd__buf_2
*CAP
1 P[3] 0.000240891
2 *232:X 0.000240891
3 P[3] *56:10 4.08641e-05
4 P[0] P[3] 8.73764e-05
5 *229:A P[3] 8.73764e-05
*RES
1 *232:X P[3] 48.5734 
*END

*D_NET *13 0.000506633
*CONN
*P P[4] O
*I *233:X O *D sky130_fd_sc_hd__buf_2
*CAP
1 P[4] 0.000209628
2 *233:X 0.000209628
3 P[4] P[5] 8.73764e-05
4 *229:A P[4] 0
*RES
1 *233:X P[4] 47.1648 
*END

*D_NET *14 0.000669729
*CONN
*P P[5] O
*I *234:X O *D sky130_fd_sc_hd__buf_2
*CAP
1 P[5] 0.000291176
2 *234:X 0.000291176
3 P[5] *58:8 0
4 P[4] P[5] 8.73764e-05
*RES
1 *234:X P[5] 48.5734 
*END

*D_NET *15 0.000677604
*CONN
*P P[6] O
*I *235:X O *D sky130_fd_sc_hd__buf_2
*CAP
1 P[6] 0.000328179
2 *235:X 0.000328179
3 P[6] P[7] 2.12457e-05
4 P[6] *59:8 0
*RES
1 *235:X P[6] 48.5734 
*END

*D_NET *16 0.000771104
*CONN
*P P[7] O
*I *236:X O *D sky130_fd_sc_hd__buf_2
*CAP
1 P[7] 8.37565e-05
2 *236:X 0.000291172
3 *16:14 0.000374929
4 P[6] P[7] 2.12457e-05
5 *3:17 P[7] 0
6 *3:17 *16:14 0
*RES
1 *236:X *16:14 49.9 
2 *16:14 P[7] 0.382667 
*END

*D_NET *19 0.000972785
*CONN
*I *187:B2 I *D sky130_fd_sc_hd__a2bb2o_1
*I *180:Y O *D sky130_fd_sc_hd__inv_2
*CAP
1 *187:B2 0
2 *180:Y 0.000149087
3 *19:6 0.000149087
4 *19:6 *181:A 5.69373e-05
5 *19:6 *184:B 8.88657e-05
6 *19:6 *184:D 0.000181001
7 *19:6 *21:10 9.82009e-05
8 *19:6 *53:32 8.40645e-05
9 *19:6 *53:40 9.77405e-05
10 *19:6 *64:16 4.21062e-05
11 *19:6 *65:50 2.56944e-05
*RES
1 *180:Y *19:6 27.9093 
2 *19:6 *187:B2 23 
*END

*D_NET *20 0.00111383
*CONN
*I *187:A1_N I *D sky130_fd_sc_hd__a2bb2o_1
*I *186:B I *D sky130_fd_sc_hd__or4b_1
*I *183:X O *D sky130_fd_sc_hd__and4_1
*CAP
1 *187:A1_N 0
2 *186:B 0
3 *183:X 0
4 *20:27 0.000196566
5 *20:12 0.000132523
6 *20:4 0.000329089
7 *20:12 *55:10 0
8 *20:12 *61:24 8.62876e-05
9 *20:12 *66:8 9.75779e-05
10 *20:27 *184:D 6.17437e-06
11 *20:27 *24:10 6.17437e-06
12 *20:27 *61:24 6.68793e-05
13 *20:27 *64:28 5.12254e-05
14 *20:27 *66:8 4.34745e-05
15 *20:27 *66:23 9.78575e-05
*RES
1 *183:X *20:4 23 
2 *20:4 *20:12 32.2993 
3 *20:12 *186:B 23 
4 *20:4 *20:27 33.625 
5 *20:27 *187:A1_N 23 
*END

*D_NET *21 0.00189243
*CONN
*I *217:B1 I *D sky130_fd_sc_hd__o211ai_1
*I *202:A1 I *D sky130_fd_sc_hd__a211o_1
*I *184:Y O *D sky130_fd_sc_hd__nand4_1
*CAP
1 *217:B1 5.99798e-05
2 *202:A1 0
3 *184:Y 0.000417818
4 *21:16 0.000119271
5 *21:10 0.000597069
6 *217:B1 *217:A2 5.90675e-06
7 *217:B1 *217:C1 4.34745e-05
8 *217:B1 *52:10 2.4754e-05
9 *217:B1 *53:14 0
10 *21:10 *181:A 1.22822e-05
11 *21:10 *217:A2 0
12 *21:10 *217:C1 0.00014196
13 *21:10 *53:14 1.49963e-05
14 *21:10 *53:22 0.000153155
15 *21:16 *217:A1 0
16 *21:16 *217:A2 1.02387e-05
17 *21:16 *217:C1 3.71198e-05
18 *21:16 *28:40 2.2119e-05
19 *21:16 *50:8 0.000134081
20 *19:6 *21:10 9.82009e-05
*RES
1 *184:Y *21:10 30.3329 
2 *21:10 *21:16 32.61 
3 *21:16 *202:A1 23 
4 *21:10 *217:B1 24.595 
*END

*D_NET *22 0.00181051
*CONN
*I *187:A2_N I *D sky130_fd_sc_hd__a2bb2o_1
*I *186:C I *D sky130_fd_sc_hd__or4b_1
*I *185:Y O *D sky130_fd_sc_hd__a22oi_1
*CAP
1 *187:A2_N 0
2 *186:C 0
3 *185:Y 0
4 *22:23 0.000112793
5 *22:12 0.000215762
6 *22:4 0.000328554
7 *22:12 *185:A2 8.14733e-05
8 *22:12 *186:A 6.6869e-05
9 *22:12 *190:A 1.22803e-05
10 *22:12 *28:20 0.000308946
11 *22:12 *61:24 0.000106609
12 *22:12 *63:36 4.43717e-05
13 *22:12 *64:38 0
14 *22:12 *65:16 7.19576e-05
15 *22:12 *65:25 9.58714e-05
16 *22:23 *189:A 6.07306e-05
17 *22:23 *53:40 0.000111462
18 *22:23 *65:33 1.98009e-05
19 *22:23 *66:23 3.64246e-05
20 *22:23 *66:46 0.000136609
*RES
1 *185:Y *22:4 23 
2 *22:4 *22:12 36.7943 
3 *22:12 *186:C 23 
4 *22:4 *22:23 32.9621 
5 *22:23 *187:A2_N 23 
*END

*D_NET *23 0.00588137
*CONN
*I *202:A2 I *D sky130_fd_sc_hd__a211o_1
*I *217:C1 I *D sky130_fd_sc_hd__o211ai_1
*I *188:A I *D sky130_fd_sc_hd__and2_1
*I *186:X O *D sky130_fd_sc_hd__or4b_1
*CAP
1 *202:A2 5.60432e-05
2 *217:C1 0.000264446
3 *188:A 0.000330263
4 *186:X 0
5 *23:31 0.000463919
6 *23:23 0.00121062
7 *23:4 0.00139745
8 *188:A *24:10 0.000143655
9 *188:A *64:38 1.41077e-05
10 *202:A2 *200:D 9.5877e-05
11 *217:C1 *28:32 4.51431e-05
12 *217:C1 *28:40 5.58473e-05
13 *217:C1 *52:10 0.000143655
14 *217:C1 *53:14 2.4754e-05
15 *217:C1 *53:22 0
16 *23:23 *186:A 3.83778e-05
17 *23:23 *191:B 0
18 *23:23 *201:A1 0.000157729
19 *23:23 *28:20 0.000721607
20 *23:23 *53:30 0.000318946
21 *23:23 *63:36 6.32688e-05
22 *23:31 *201:A2 1.01436e-05
23 *23:31 *28:32 5.35172e-05
24 *23:31 *28:40 4.94435e-05
25 *23:31 *37:12 0
26 *217:B1 *217:C1 4.34745e-05
27 *21:10 *217:C1 0.00014196
28 *21:16 *217:C1 3.71198e-05
*RES
1 *186:X *23:4 23 
2 *23:4 *188:A 29.38 
3 *23:4 *23:23 46.9236 
4 *23:23 *23:31 17.9207 
5 *23:31 *217:C1 43.0129 
6 *23:31 *202:A2 39.0979 
*END

*D_NET *24 0.000917689
*CONN
*I *188:B I *D sky130_fd_sc_hd__and2_1
*I *187:X O *D sky130_fd_sc_hd__a2bb2o_1
*CAP
1 *188:B 0
2 *187:X 0.000269163
3 *24:10 0.000269163
4 *24:10 *184:D 0
5 *24:10 *64:28 1.53981e-05
6 *24:10 *64:38 0.000214136
7 *188:A *24:10 0.000143655
8 *20:27 *24:10 6.17437e-06
*RES
1 *187:X *24:10 29.38 
2 *24:10 *188:B 23 
*END

*D_NET *25 0.00232634
*CONN
*I *208:A1 I *D sky130_fd_sc_hd__a21boi_1
*I *196:A I *D sky130_fd_sc_hd__and3_1
*I *197:B1 I *D sky130_fd_sc_hd__a21oi_1
*I *189:X O *D sky130_fd_sc_hd__and2_1
*CAP
1 *208:A1 0
2 *196:A 2.56995e-05
3 *197:B1 0.000102711
4 *189:X 0.000561574
5 *25:12 0.00012841
6 *25:10 0.000561574
7 *196:A *196:C 4.17736e-05
8 *196:A *31:20 5.50106e-05
9 *196:A *43:10 8.43466e-05
10 *197:B1 *31:20 0.000231039
11 *197:B1 *43:10 5.56279e-05
12 *25:10 *189:A 0.000191255
13 *25:10 *190:A 0
14 *25:10 *30:10 0.000157174
15 *25:10 *62:48 4.57432e-05
16 *25:10 *62:67 8.44019e-05
*RES
1 *189:X *25:10 49.1236 
2 *25:10 *25:12 15 
3 *25:12 *197:B1 25.5271 
4 *25:12 *196:A 24.0979 
5 *25:12 *208:A1 23 
*END

*D_NET *26 0.000845333
*CONN
*I *194:A I *D sky130_fd_sc_hd__or3_1
*I *195:B1 I *D sky130_fd_sc_hd__o21ai_1
*I *190:Y O *D sky130_fd_sc_hd__nand2_1
*CAP
1 *194:A 3.48253e-05
2 *195:B1 2.84143e-05
3 *190:Y 0.000118941
4 *26:10 6.32396e-05
5 *26:8 0.000118941
6 *194:A *194:B 9.84851e-05
7 *194:A *194:C 8.60475e-05
8 *194:A *62:42 2.4754e-05
9 *195:B1 *194:B 9.67842e-05
10 *195:B1 *194:C 9.67842e-05
11 *26:8 *62:48 0
12 *26:8 *67:58 7.81176e-05
*RES
1 *190:Y *26:8 40.2579 
2 *26:8 *26:10 15 
3 *26:10 *195:B1 24.0979 
4 *26:10 *194:A 24.5743 
*END

*D_NET *27 0.00263242
*CONN
*I *219:A2 I *D sky130_fd_sc_hd__a22o_1
*I *194:B I *D sky130_fd_sc_hd__or3_1
*I *195:A1 I *D sky130_fd_sc_hd__o21ai_1
*I *191:X O *D sky130_fd_sc_hd__and4_1
*CAP
1 *219:A2 0.000501514
2 *194:B 0.00019538
3 *195:A1 0
4 *191:X 0.000140022
5 *27:19 0.00072855
6 *27:10 0.000171678
7 *194:B *194:C 4.5051e-05
8 *194:B *62:42 1.21972e-05
9 *194:B *67:58 5.3304e-05
10 *219:A2 *219:B2 7.88828e-05
11 *219:A2 *31:8 0.000144791
12 *219:A2 *47:10 0
13 *219:A2 *67:58 3.47781e-05
14 *27:10 *29:8 0.000138727
15 *27:10 *62:42 3.31683e-05
16 *27:10 *63:23 5.67058e-05
17 *27:10 *63:36 5.67058e-05
18 *27:19 *29:8 1.14452e-05
19 *27:19 *67:58 3.42537e-05
20 *194:A *194:B 9.84851e-05
21 *195:B1 *194:B 9.67842e-05
*RES
1 *191:X *27:10 41.0036 
2 *27:10 *195:A1 38 
3 *27:10 *27:19 0.849286 
4 *27:19 *194:B 41.9771 
5 *27:19 *219:A2 46.7 
*END

*D_NET *28 0.00705882
*CONN
*I *213:C I *D sky130_fd_sc_hd__and3_1
*I *201:B1 I *D sky130_fd_sc_hd__a22oi_1
*I *200:C I *D sky130_fd_sc_hd__and4_1
*I *207:S I *D sky130_fd_sc_hd__mux2_1
*I *192:Y O *D sky130_fd_sc_hd__nand4_2
*CAP
1 *213:C 0
2 *201:B1 0
3 *200:C 0.000301136
4 *207:S 0
5 *192:Y 0
6 *28:65 0.000226299
7 *28:40 0.000375544
8 *28:32 0.000933471
9 *28:20 0.000805984
10 *28:4 0.000775492
11 *200:C *200:D 0.000348917
12 *28:20 *200:D 8.14599e-05
13 *28:20 *201:A1 0.000101019
14 *28:20 *201:B2 1.14154e-05
15 *28:20 *35:6 5.55371e-05
16 *28:20 *53:30 0.000318946
17 *28:20 *62:67 5.50106e-05
18 *28:20 *63:64 2.9165e-05
19 *28:20 *63:77 0.000231039
20 *28:20 *65:12 0.000204779
21 *28:20 *65:16 8.7769e-05
22 *28:20 *65:25 6.96783e-05
23 *28:32 *200:D 9.41704e-05
24 *28:32 *37:12 9.28078e-06
25 *28:32 *53:22 5.11935e-06
26 *28:40 *201:A2 1.7992e-05
27 *28:40 *207:A1 2.4754e-05
28 *28:40 *36:12 0
29 *28:40 *38:8 0.000141879
30 *28:40 *50:8 7.98613e-05
31 *28:40 *67:14 3.47781e-05
32 *28:40 *67:16 5.3304e-05
33 *28:40 *67:27 5.0135e-05
34 *28:65 *191:B 6.6869e-05
35 *28:65 *62:8 0
36 *28:65 *62:18 0
37 *28:65 *63:6 1.95448e-05
38 *28:65 *63:12 0.000138708
39 *28:65 *63:36 0
40 *28:65 *65:78 5.31444e-05
41 *217:C1 *28:32 4.51431e-05
42 *217:C1 *28:40 5.58473e-05
43 *21:16 *28:40 2.2119e-05
44 *22:12 *28:20 0.000308946
45 *23:23 *28:20 0.000721607
46 *23:31 *28:32 5.35172e-05
47 *23:31 *28:40 4.94435e-05
*RES
1 *192:Y *28:4 23 
2 *28:4 *28:20 18.7671 
3 *28:20 *28:32 33.6664 
4 *28:32 *28:40 38.41 
5 *28:40 *207:S 23 
6 *28:32 *200:C 27.4329 
7 *28:20 *201:B1 23 
8 *28:4 *28:65 34.2464 
9 *28:65 *213:C 23 
*END

*D_NET *29 0.000985366
*CONN
*I *194:C I *D sky130_fd_sc_hd__or3_1
*I *195:A2 I *D sky130_fd_sc_hd__o21ai_1
*I *193:Y O *D sky130_fd_sc_hd__nand2_1
*CAP
1 *194:C 7.07819e-05
2 *195:A2 0
3 *193:Y 6.58499e-05
4 *29:10 7.07819e-05
5 *29:8 6.58499e-05
6 *194:C *62:42 0.000267178
7 *29:8 *67:58 6.6869e-05
8 *194:A *194:C 8.60475e-05
9 *194:B *194:C 4.5051e-05
10 *195:B1 *194:C 9.67842e-05
11 *27:10 *29:8 0.000138727
12 *27:19 *29:8 1.14452e-05
*RES
1 *193:Y *29:8 39.9057 
2 *29:8 *29:10 15 
3 *29:10 *195:A2 23 
4 *29:10 *194:C 26.0036 
*END

*D_NET *30 0.00261237
*CONN
*I *196:B I *D sky130_fd_sc_hd__and3_1
*I *208:B1_N I *D sky130_fd_sc_hd__a21boi_1
*I *197:A1 I *D sky130_fd_sc_hd__a21oi_1
*I *194:X O *D sky130_fd_sc_hd__or3_1
*CAP
1 *196:B 0
2 *208:B1_N 0
3 *197:A1 5.72968e-05
4 *194:X 0.000512225
5 *30:36 9.02836e-05
6 *30:14 0.000101366
7 *30:12 0.000134353
8 *30:10 0.000512225
9 *197:A1 *31:20 0.000146389
10 *197:A1 *49:14 8.32427e-05
11 *30:10 *206:B 8.00236e-05
12 *30:10 *62:42 2.07026e-05
13 *30:14 *196:C 5.50049e-05
14 *30:14 *31:20 0.000220579
15 *30:14 *49:14 0.000275875
16 *30:36 *196:C 6.78886e-05
17 *30:36 *49:14 9.77405e-05
18 *25:10 *30:10 0.000157174
*RES
1 *194:X *30:10 46.555 
2 *30:10 *30:12 15 
3 *30:12 *30:14 3.00357 
4 *30:14 *197:A1 25.0714 
5 *30:14 *208:B1_N 23 
6 *30:12 *30:36 31.9471 
7 *30:36 *196:B 23 
*END

*D_NET *31 0.00226589
*CONN
*I *197:A2 I *D sky130_fd_sc_hd__a21oi_1
*I *196:C I *D sky130_fd_sc_hd__and3_1
*I *208:A2 I *D sky130_fd_sc_hd__a21boi_1
*I *195:Y O *D sky130_fd_sc_hd__o21ai_1
*CAP
1 *197:A2 0
2 *196:C 5.43893e-05
3 *208:A2 0
4 *195:Y 0.000215138
5 *31:20 0.000200589
6 *31:12 0.000267717
7 *31:8 0.000336655
8 *196:C *43:10 9.90043e-05
9 *196:C *49:14 2.76645e-06
10 *31:8 *216:A 0
11 *31:8 *33:8 0
12 *31:8 *47:10 0
13 *31:8 *67:58 1.01436e-05
14 *31:12 *49:14 0.00010776
15 *31:20 *219:B2 0
16 *31:20 *49:14 9.24795e-06
17 *196:A *196:C 4.17736e-05
18 *196:A *31:20 5.50106e-05
19 *197:A1 *31:20 0.000146389
20 *197:B1 *31:20 0.000231039
21 *219:A2 *31:8 0.000144791
22 *30:14 *196:C 5.50049e-05
23 *30:14 *31:20 0.000220579
24 *30:36 *196:C 6.78886e-05
*RES
1 *195:Y *31:8 42.7229 
2 *31:8 *31:12 18.0036 
3 *31:12 *31:20 5.57214 
4 *31:20 *208:A2 23 
5 *31:20 *196:C 25.2993 
6 *31:12 *197:A2 23 
*END

*D_NET *32 0.000554883
*CONN
*I *198:A I *D sky130_fd_sc_hd__nor2_1
*I *196:X O *D sky130_fd_sc_hd__and3_1
*CAP
1 *198:A 4.2635e-05
2 *196:X 0.000169155
3 *32:10 0.00021179
4 *198:A *34:12 0.000102389
5 *32:10 *43:10 2.8914e-05
*RES
1 *196:X *32:10 40.5271 
2 *32:10 *198:A 39.0979 
*END

*D_NET *33 0.000947497
*CONN
*I *198:B I *D sky130_fd_sc_hd__nor2_1
*I *197:Y O *D sky130_fd_sc_hd__a21oi_1
*CAP
1 *198:B 0.000278025
2 *197:Y 0.000195724
3 *33:8 0.000473748
4 *31:8 *33:8 0
*RES
1 *197:Y *33:8 41.3143 
2 *33:8 *198:B 41.9564 
*END

*D_NET *34 0.00344369
*CONN
*I *205:A I *D sky130_fd_sc_hd__xnor2_1
*I *204:B I *D sky130_fd_sc_hd__and2b_1
*I *215:A1 I *D sky130_fd_sc_hd__a31o_1
*I *198:Y O *D sky130_fd_sc_hd__nor2_1
*CAP
1 *205:A 9.17524e-05
2 *204:B 0.000371837
3 *215:A1 0
4 *198:Y 0.000444547
5 *34:25 0.00076244
6 *34:12 0.000743397
7 *204:B *204:A_N 3.58358e-05
8 *204:B *39:12 5.41385e-05
9 *204:B *57:8 4.65917e-05
10 *205:A *204:A_N 0
11 *205:A *39:12 5.50106e-05
12 *34:12 *209:A 2.18409e-05
13 *34:12 *214:B1 0
14 *34:12 *36:12 0
15 *34:12 *42:14 0.00014196
16 *34:12 *43:27 0.000138718
17 *34:12 *44:10 0
18 *34:12 *45:8 0.000138718
19 *34:25 *211:B 0.000280784
20 *34:25 *44:10 0
21 *34:25 *45:8 1.37349e-05
22 *198:A *34:12 0.000102389
*RES
1 *198:Y *34:12 46.9693 
2 *34:12 *215:A1 38 
3 *34:12 *34:25 21.4421 
4 *34:25 *204:B 29.2557 
5 *34:25 *205:A 25.5479 
*END

*D_NET *35 0.0020241
*CONN
*I *200:D I *D sky130_fd_sc_hd__and4_1
*I *201:B2 I *D sky130_fd_sc_hd__a22oi_1
*I *199:X O *D sky130_fd_sc_hd__a22o_1
*CAP
1 *200:D 0.000369747
2 *201:B2 2.0995e-05
3 *199:X 0.000214239
4 *35:6 0.000604981
5 *200:D *201:A1 3.55996e-05
6 *200:D *201:A2 1.50272e-05
7 *35:6 *63:77 7.61385e-05
8 *200:C *200:D 0.000348917
9 *202:A2 *200:D 9.5877e-05
10 *28:20 *200:D 8.14599e-05
11 *28:20 *201:B2 1.14154e-05
12 *28:20 *35:6 5.55371e-05
13 *28:32 *200:D 9.41704e-05
*RES
1 *199:X *35:6 26.0036 
2 *35:6 *201:B2 23.4971 
3 *35:6 *200:D 30.9336 
*END

*D_NET *36 0.00301899
*CONN
*I *217:A1 I *D sky130_fd_sc_hd__o211ai_1
*I *202:B1 I *D sky130_fd_sc_hd__a211o_1
*I *203:A_N I *D sky130_fd_sc_hd__and2b_1
*I *215:A2 I *D sky130_fd_sc_hd__a31o_1
*I *200:X O *D sky130_fd_sc_hd__and4_1
*CAP
1 *217:A1 0.000196053
2 *202:B1 8.99228e-05
3 *203:A_N 0
4 *215:A2 0.000151554
5 *200:X 0
6 *36:12 0.000622091
7 *36:6 0.000756513
8 *202:B1 *202:C1 1.05441e-05
9 *202:B1 *50:8 9.32934e-05
10 *215:A2 *215:B1 3.71369e-05
11 *215:A2 *38:35 5.31757e-05
12 *215:A2 *43:27 9.24426e-05
13 *217:A1 *202:C1 9.86551e-06
14 *217:A1 *217:A2 6.71302e-05
15 *217:A1 *53:104 0
16 *217:A1 *64:91 4.21594e-06
17 *217:A1 *67:92 3.4932e-05
18 *217:A1 *68:8 0
19 *36:12 *38:18 0.000617876
20 *36:12 *38:35 2.19998e-05
21 *36:12 *43:27 0
22 *36:12 *44:10 0.000111852
23 *36:12 *50:8 4.83941e-05
24 *36:12 *67:14 0
25 *36:12 *67:92 0
26 *21:16 *217:A1 0
27 *28:40 *36:12 0
28 *34:12 *36:12 0
*RES
1 *200:X *36:6 38 
2 *36:6 *36:12 26.1029 
3 *36:12 *215:A2 26.5007 
4 *36:12 *203:A_N 23 
5 *36:6 *202:B1 40.2993 
6 *36:6 *217:A1 42.2879 
*END

*D_NET *37 0.00175652
*CONN
*I *202:C1 I *D sky130_fd_sc_hd__a211o_1
*I *217:A2 I *D sky130_fd_sc_hd__o211ai_1
*I *201:Y O *D sky130_fd_sc_hd__a22oi_1
*CAP
1 *202:C1 9.57969e-06
2 *217:A2 0.000150605
3 *201:Y 0.000607858
4 *37:14 0.000160184
5 *37:12 0.000607858
6 *202:C1 *50:8 1.02249e-06
7 *217:A2 *50:8 5.48395e-05
8 *217:A2 *53:89 2.93845e-05
9 *37:12 *53:22 2.22269e-05
10 *202:B1 *202:C1 1.05441e-05
11 *217:A1 *202:C1 9.86551e-06
12 *217:A1 *217:A2 6.71302e-05
13 *217:B1 *217:A2 5.90675e-06
14 *21:10 *217:A2 0
15 *21:16 *217:A2 1.02387e-05
16 *23:31 *37:12 0
17 *28:32 *37:12 9.28078e-06
*RES
1 *201:Y *37:12 47.6737 
2 *37:12 *37:14 8 
3 *37:14 *217:A2 41.2004 
4 *37:14 *202:C1 38.3211 
*END

*D_NET *38 0.00438161
*CONN
*I *218:A I *D sky130_fd_sc_hd__and2_1
*I *214:A1 I *D sky130_fd_sc_hd__a21oi_1
*I *203:B I *D sky130_fd_sc_hd__and2b_1
*I *202:X O *D sky130_fd_sc_hd__a211o_1
*CAP
1 *218:A 6.17944e-05
2 *214:A1 0
3 *203:B 0
4 *202:X 4.9965e-05
5 *38:35 0.000633718
6 *38:18 0.000931316
7 *38:12 0.000584578
8 *38:8 0.00027515
9 *218:A *218:B 0.000140259
10 *38:8 *201:A2 7.28526e-05
11 *38:12 *218:B 0.000181125
12 *38:18 *44:10 4.32475e-05
13 *38:18 *67:92 0.000135252
14 *38:35 *211:B 5.01986e-05
15 *38:35 *214:B1 1.83667e-05
16 *38:35 *215:B1 0.000180224
17 *38:35 *43:27 9.91798e-05
18 *38:35 *45:8 8.9458e-05
19 *215:A2 *38:35 5.31757e-05
20 *28:40 *38:8 0.000141879
21 *36:12 *38:18 0.000617876
22 *36:12 *38:35 2.19998e-05
*RES
1 *202:X *38:8 39.9057 
2 *38:8 *38:12 18.9564 
3 *38:12 *38:18 39.3007 
4 *38:18 *203:B 23 
5 *38:18 *38:35 39.8393 
6 *38:35 *214:A1 23 
7 *38:12 *218:A 24.5743 
*END

*D_NET *39 0.00117329
*CONN
*I *204:A_N I *D sky130_fd_sc_hd__and2b_1
*I *205:B I *D sky130_fd_sc_hd__xnor2_1
*I *203:X O *D sky130_fd_sc_hd__and2b_1
*CAP
1 *204:A_N 0.000219386
2 *205:B 0
3 *203:X 0.000119427
4 *39:12 0.000250826
5 *39:8 0.000150866
6 *204:A_N *57:8 0.000287801
7 *39:8 *44:10 0
8 *204:B *204:A_N 3.58358e-05
9 *204:B *39:12 5.41385e-05
10 *205:A *204:A_N 0
11 *205:A *39:12 5.50106e-05
*RES
1 *203:X *39:8 39.9057 
2 *39:8 *39:12 16.0979 
3 *39:12 *205:B 23 
4 *39:12 *204:A_N 28.2821 
*END

*D_NET *40 0.000504547
*CONN
*I *212:A I *D sky130_fd_sc_hd__xnor2_1
*I *204:X O *D sky130_fd_sc_hd__and2b_1
*CAP
1 *212:A 0.000145038
2 *204:X 0.000107236
3 *40:8 0.000252274
4 *40:8 *46:8 0
*RES
1 *204:X *40:8 39.9057 
2 *40:8 *212:A 40.5271 
*END

*D_NET *41 0.000677688
*CONN
*I *207:A1 I *D sky130_fd_sc_hd__mux2_1
*I *206:Y O *D sky130_fd_sc_hd__nand2_1
*CAP
1 *207:A1 0.000185383
2 *206:Y 0.000185383
3 *207:A1 *206:A 9.84794e-05
4 *207:A1 *42:10 1.32939e-05
5 *207:A1 *67:16 0.000170394
6 *28:40 *207:A1 2.4754e-05
*RES
1 *206:Y *207:A1 49.9564 
*END

*D_NET *42 0.00167858
*CONN
*I *214:B1 I *D sky130_fd_sc_hd__a21oi_1
*I *209:A I *D sky130_fd_sc_hd__or2_1
*I *210:A I *D sky130_fd_sc_hd__nand2_1
*I *207:X O *D sky130_fd_sc_hd__mux2_1
*CAP
1 *214:B1 0.000119179
2 *209:A 0.000193898
3 *210:A 0
4 *207:X 0.000249671
5 *42:14 0.000252334
6 *42:10 0.000427286
7 *209:A *209:B 0.00014196
8 *209:A *67:14 3.53115e-05
9 *214:B1 *45:8 2.26385e-05
10 *42:10 *206:A 3.71251e-05
11 *42:10 *67:14 0
12 *42:10 *67:16 3.7122e-06
13 *207:A1 *42:10 1.32939e-05
14 *34:12 *209:A 2.18409e-05
15 *34:12 *214:B1 0
16 *34:12 *42:14 0.00014196
17 *38:35 *214:B1 1.83667e-05
*RES
1 *207:X *42:10 41.8321 
2 *42:10 *42:14 16.5743 
3 *42:14 *210:A 23 
4 *42:14 *209:A 26.9771 
5 *42:10 *214:B1 40.2579 
*END

*D_NET *43 0.00229868
*CONN
*I *209:B I *D sky130_fd_sc_hd__or2_1
*I *210:B I *D sky130_fd_sc_hd__nand2_1
*I *214:A2 I *D sky130_fd_sc_hd__a21oi_1
*I *208:Y O *D sky130_fd_sc_hd__a21boi_1
*CAP
1 *209:B 4.98621e-05
2 *210:B 0
3 *214:A2 0
4 *208:Y 0.000307539
5 *43:27 0.000359768
6 *43:10 0.000617445
7 *209:B *67:14 2.93845e-05
8 *43:10 *49:14 6.14968e-05
9 *43:27 *215:B1 8.00286e-05
10 *43:27 *44:10 0
11 *43:27 *49:14 5.29672e-05
12 *196:A *43:10 8.43466e-05
13 *196:C *43:10 9.90043e-05
14 *197:B1 *43:10 5.56279e-05
15 *209:A *209:B 0.00014196
16 *215:A2 *43:27 9.24426e-05
17 *32:10 *43:10 2.8914e-05
18 *34:12 *43:27 0.000138718
19 *36:12 *43:27 0
20 *38:35 *43:27 9.91798e-05
*RES
1 *208:Y *43:10 28.4271 
2 *43:10 *214:A2 23 
3 *43:10 *43:27 36.8564 
4 *43:27 *210:B 23 
5 *43:27 *209:B 24.5743 
*END

*D_NET *44 0.000825505
*CONN
*I *211:A I *D sky130_fd_sc_hd__nand2_1
*I *209:X O *D sky130_fd_sc_hd__or2_1
*CAP
1 *211:A 0
2 *209:X 0.000328237
3 *44:10 0.000328237
4 *44:10 *211:B 0
5 *44:10 *67:14 1.39317e-05
6 *34:12 *44:10 0
7 *34:25 *44:10 0
8 *36:12 *44:10 0.000111852
9 *38:18 *44:10 4.32475e-05
10 *39:8 *44:10 0
11 *43:27 *44:10 0
*RES
1 *209:X *44:10 43.6964 
2 *44:10 *211:A 38 
*END

*D_NET *45 0.00137502
*CONN
*I *211:B I *D sky130_fd_sc_hd__nand2_1
*I *215:A3 I *D sky130_fd_sc_hd__a31o_1
*I *210:Y O *D sky130_fd_sc_hd__nand2_1
*CAP
1 *211:B 0.00026517
2 *215:A3 0
3 *210:Y 0.000124573
4 *45:8 0.000389743
5 *214:B1 *45:8 2.26385e-05
6 *34:12 *45:8 0.000138718
7 *34:25 *211:B 0.000280784
8 *34:25 *45:8 1.37349e-05
9 *38:35 *211:B 5.01986e-05
10 *38:35 *45:8 8.9458e-05
11 *44:10 *211:B 0
*RES
1 *210:Y *45:8 40.2579 
2 *45:8 *215:A3 38 
3 *45:8 *211:B 43.9657 
*END

*D_NET *46 0.000491181
*CONN
*I *212:B I *D sky130_fd_sc_hd__xnor2_1
*I *211:Y O *D sky130_fd_sc_hd__nand2_1
*CAP
1 *212:B 0.000119361
2 *211:Y 0.000126229
3 *46:8 0.00024559
4 *40:8 *46:8 0
*RES
1 *211:Y *46:8 40.2579 
2 *46:8 *212:B 40.0507 
*END

*D_NET *47 0.00174905
*CONN
*I *216:A I *D sky130_fd_sc_hd__xor2_1
*I *219:B1 I *D sky130_fd_sc_hd__a22o_1
*I *213:X O *D sky130_fd_sc_hd__and3_1
*CAP
1 *216:A 0.000279062
2 *219:B1 0
3 *213:X 0.000282513
4 *47:10 0.000561574
5 *216:A *49:31 0.000185428
6 *216:A *59:8 0
7 *47:10 *213:A 3.7122e-06
8 *47:10 *63:6 5.47808e-05
9 *47:10 *67:58 5.50049e-05
10 *47:10 *67:64 0.000326973
11 *219:A2 *47:10 0
12 *31:8 *216:A 0
13 *31:8 *47:10 0
*RES
1 *213:X *47:10 44.6493 
2 *47:10 *219:B1 38 
3 *47:10 *216:A 43.8414 
*END

*D_NET *48 0.000599079
*CONN
*I *215:B1 I *D sky130_fd_sc_hd__a31o_1
*I *214:Y O *D sky130_fd_sc_hd__a21oi_1
*CAP
1 *215:B1 0.000122492
2 *214:Y 0.000122492
3 *215:B1 *49:14 5.67058e-05
4 *215:A2 *215:B1 3.71369e-05
5 *38:35 *215:B1 0.000180224
6 *43:27 *215:B1 8.00286e-05
*RES
1 *214:Y *215:B1 49.5007 
*END

*D_NET *49 0.0036518
*CONN
*I *216:B I *D sky130_fd_sc_hd__xor2_1
*I *219:B2 I *D sky130_fd_sc_hd__a22o_1
*I *215:X O *D sky130_fd_sc_hd__a31o_1
*CAP
1 *216:B 0
2 *219:B2 0.000140652
3 *215:X 0.000810262
4 *49:31 0.000368931
5 *49:14 0.00131985
6 *196:C *49:14 2.76645e-06
7 *197:A1 *49:14 8.32427e-05
8 *215:B1 *49:14 5.67058e-05
9 *216:A *49:31 0.000185428
10 *219:A2 *219:B2 7.88828e-05
11 *30:14 *49:14 0.000275875
12 *30:36 *49:14 9.77405e-05
13 *31:12 *49:14 0.00010776
14 *31:20 *219:B2 0
15 *31:20 *49:14 9.24795e-06
16 *43:10 *49:14 6.14968e-05
17 *43:27 *49:14 5.29672e-05
*RES
1 *215:X *49:14 37.2929 
2 *49:14 *219:B2 26.2521 
3 *49:14 *49:31 36.815 
4 *49:31 *216:B 23 
*END

*D_NET *50 0.0015329
*CONN
*I *218:B I *D sky130_fd_sc_hd__and2_1
*I *217:Y O *D sky130_fd_sc_hd__o211ai_1
*CAP
1 *218:B 0.000219562
2 *217:Y 0.000180451
3 *50:8 0.000400013
4 *202:B1 *50:8 9.32934e-05
5 *202:C1 *50:8 1.02249e-06
6 *217:A2 *50:8 5.48395e-05
7 *218:A *218:B 0.000140259
8 *21:16 *50:8 0.000134081
9 *28:40 *50:8 7.98613e-05
10 *36:12 *50:8 4.83941e-05
11 *38:12 *218:B 0.000181125
*RES
1 *217:Y *50:8 43.075 
2 *50:8 *218:B 42.4329 
*END

*D_NET *51 7.7648e-05
*CONN
*I *220:A I *D sky130_fd_sc_hd__clkbuf_1
*I *182:X O *D sky130_fd_sc_hd__and2_1
*CAP
1 *220:A 2.268e-05
2 *182:X 2.268e-05
3 *220:A *52:10 3.22879e-05
*RES
1 *182:X *220:A 46.6214 
*END

*D_NET *52 0.00137846
*CONN
*I *221:A I *D sky130_fd_sc_hd__clkbuf_1
*I *181:X O *D sky130_fd_sc_hd__and2_1
*CAP
1 *221:A 0
2 *181:X 0.000339538
3 *52:10 0.000339538
4 *52:10 *230:A 0
5 *52:10 *53:14 0.000228903
6 *52:10 *53:89 0.00014196
7 *52:10 *53:104 0.000127821
8 *217:B1 *52:10 2.4754e-05
9 *217:C1 *52:10 0.000143655
10 *220:A *52:10 3.22879e-05
*RES
1 *181:X *52:10 31.7621 
2 *52:10 *221:A 23 
*END

*D_NET *53 0.00732242
*CONN
*I *200:A I *D sky130_fd_sc_hd__and4_1
*I *182:A I *D sky130_fd_sc_hd__and2_1
*I *181:B I *D sky130_fd_sc_hd__and2_1
*I *201:A1 I *D sky130_fd_sc_hd__a22oi_1
*I *184:B I *D sky130_fd_sc_hd__nand4_1
*I *183:B I *D sky130_fd_sc_hd__and4_1
*I *185:B2 I *D sky130_fd_sc_hd__a22oi_1
*I *222:X O *D sky130_fd_sc_hd__dlymetal6s2s_1
*CAP
1 *200:A 0
2 *182:A 0
3 *181:B 0
4 *201:A1 9.41037e-05
5 *184:B 6.75269e-05
6 *183:B 0
7 *185:B2 0
8 *222:X 0.000120914
9 *53:104 0.000262733
10 *53:89 0.000371701
11 *53:53 0.000419979
12 *53:40 0.000204964
13 *53:32 0.000706579
14 *53:30 0.000389331
15 *53:22 0.000612855
16 *53:14 0.000543102
17 *53:8 0.000494401
18 *201:A1 *201:A2 3.51357e-05
19 *53:8 *64:91 0
20 *53:22 *181:A 0.000187129
21 *53:22 *63:77 8.23723e-05
22 *53:30 *62:67 3.28748e-05
23 *53:30 *64:78 0.000110922
24 *53:40 *184:D 7.36005e-05
25 *53:40 *65:33 4.80826e-05
26 *53:53 *183:D 0
27 *53:53 *184:C 3.95159e-06
28 *53:53 *61:10 3.39335e-05
29 *53:53 *61:18 2.34732e-05
30 *53:53 *64:78 8.4047e-05
31 *53:53 *65:33 4.587e-05
32 *53:53 *65:41 8.50956e-05
33 *53:53 *66:23 0
34 *53:104 *64:91 3.70187e-05
35 *53:104 *68:8 0
36 *200:D *201:A1 3.55996e-05
37 *217:A1 *53:104 0
38 *217:A2 *53:89 2.93845e-05
39 *217:B1 *53:14 0
40 *217:C1 *53:14 2.4754e-05
41 *217:C1 *53:22 0
42 *223:A *53:53 8.80335e-05
43 *19:6 *184:B 8.88657e-05
44 *19:6 *53:32 8.40645e-05
45 *19:6 *53:40 9.77405e-05