*SPEF "ieee 1481-1999"
*DESIGN "SARSA_RUIDO_VENTAJA_e5"
*DATE "18:06:36 Tuesday September 16, 2025"
*VENDOR "The OpenROAD Project"
*PROGRAM "OpenROAD"
*VERSION "edf00dff99f6c40d67a30c0e22a8191c5d2ed9d6"
*DESIGN_FLOW "NAME_SCOPE LOCAL" "PIN_CAP NONE"
*DIVIDER /
*DELIMITER :
*BUS_DELIMITER []
*T_UNIT 1 NS
*C_UNIT 1 PF
*R_UNIT 1 OHM
*L_UNIT 1 HENRY

*NAME_MAP
*1 A[0]
*2 A[1]
*3 B[0]
*4 B[1]
*5 P[0]
*6 P[1]
*7 P[2]
*8 P[3]
*11 _0_
*12 _1_
*13 net1
*14 net2
*15 net3
*16 net4
*17 net5
*18 net6
*19 net7
*20 net8
*21 FILLER_0_15
*22 FILLER_0_27
*23 FILLER_0_29
*24 FILLER_0_3
*25 FILLER_0_41
*26 FILLER_0_53
*27 FILLER_0_57
*28 FILLER_0_69
*29 FILLER_1_15
*30 FILLER_1_27
*31 FILLER_1_3
*32 FILLER_1_39
*33 FILLER_1_51
*34 FILLER_1_55
*35 FILLER_1_57
*36 FILLER_1_69
*37 FILLER_2_18
*38 FILLER_2_26
*39 FILLER_2_29
*40 FILLER_2_41
*41 FILLER_2_53
*42 FILLER_2_6
*43 FILLER_2_65
*44 FILLER_2_77
*45 FILLER_3_15
*46 FILLER_3_27
*47 FILLER_3_3
*48 FILLER_3_39
*49 FILLER_3_51
*50 FILLER_3_55
*51 FILLER_3_57
*52 FILLER_3_69
*53 FILLER_4_24
*54 FILLER_4_29
*55 FILLER_4_41
*56 FILLER_4_53
*57 FILLER_4_6
*58 FILLER_4_61
*59 FILLER_4_70
*60 FILLER_5_17
*61 FILLER_5_21
*62 FILLER_5_33
*63 FILLER_5_45
*64 FILLER_5_53
*65 FILLER_5_57
*66 FILLER_5_69
*67 FILLER_5_7
*68 FILLER_6_19
*69 FILLER_6_27
*70 FILLER_6_29
*71 FILLER_6_41
*72 FILLER_6_53
*73 FILLER_6_65
*74 FILLER_6_7
*75 FILLER_6_77
*76 FILLER_7_19
*77 FILLER_7_31
*78 FILLER_7_43
*79 FILLER_7_55
*80 FILLER_7_57
*81 FILLER_7_69
*82 FILLER_7_7
*83 FILLER_8_15
*84 FILLER_8_27
*85 FILLER_8_29
*86 FILLER_8_3
*87 FILLER_8_41
*88 FILLER_8_53
*89 FILLER_8_65
*90 FILLER_8_77
*91 FILLER_9_15
*92 FILLER_9_27
*93 FILLER_9_29
*94 FILLER_9_3
*95 FILLER_9_41
*96 FILLER_9_53
*97 FILLER_9_57
*98 FILLER_9_69
*99 PHY_EDGE_ROW_0_Left_10
*100 PHY_EDGE_ROW_0_Right_0
*101 PHY_EDGE_ROW_1_Left_11
*102 PHY_EDGE_ROW_1_Right_1
*103 PHY_EDGE_ROW_2_Left_12
*104 PHY_EDGE_ROW_2_Right_2
*105 PHY_EDGE_ROW_3_Left_13
*106 PHY_EDGE_ROW_3_Right_3
*107 PHY_EDGE_ROW_4_Left_14
*108 PHY_EDGE_ROW_4_Right_4
*109 PHY_EDGE_ROW_5_Left_15
*110 PHY_EDGE_ROW_5_Right_5
*111 PHY_EDGE_ROW_6_Left_16
*112 PHY_EDGE_ROW_6_Right_6
*113 PHY_EDGE_ROW_7_Left_17
*114 PHY_EDGE_ROW_7_Right_7
*115 PHY_EDGE_ROW_8_Left_18
*116 PHY_EDGE_ROW_8_Right_8
*117 PHY_EDGE_ROW_9_Left_19
*118 PHY_EDGE_ROW_9_Right_9
*119 TAP_TAPCELL_ROW_0_20
*120 TAP_TAPCELL_ROW_0_21
*121 TAP_TAPCELL_ROW_1_22
*122 TAP_TAPCELL_ROW_2_23
*123 TAP_TAPCELL_ROW_3_24
*124 TAP_TAPCELL_ROW_4_25
*125 TAP_TAPCELL_ROW_5_26
*126 TAP_TAPCELL_ROW_6_27
*127 TAP_TAPCELL_ROW_7_28
*128 TAP_TAPCELL_ROW_8_29
*129 TAP_TAPCELL_ROW_9_30
*130 TAP_TAPCELL_ROW_9_31
*131 _2_
*132 _3_
*133 _4_
*134 _5_
*135 _6_
*136 _7_
*137 input1
*138 input2
*139 input3
*140 input4
*141 output5
*142 output6
*143 output7
*144 output8

*PORTS
A[0] I
A[1] I
B[0] I
B[1] I
P[0] O
P[1] O
P[2] O
P[3] O

*D_NET *1 0.000666589
*CONN
*P A[0] I
*I *137:A I *D sky130_fd_sc_hd__buf_1
*CAP
1 A[0] 0.000320228
2 *137:A 0
3 *1:17 0.000320228
4 *1:17 *3:17 2.61329e-05
*RES
1 A[0] *1:17 27.1584 
2 *1:17 *137:A 23 
*END

*D_NET *2 0.000523661
*CONN
*P A[1] I
*I *138:A I *D sky130_fd_sc_hd__buf_1
*CAP
1 A[1] 0.000215152
2 *138:A 0.000215152
3 *138:A P[1] 8.06147e-05
4 *138:A *14:8 1.27424e-05
*RES
1 A[1] *138:A 47.7832 
*END

*D_NET *3 0.000747356
*CONN
*P B[0] I
*I *139:A I *D sky130_fd_sc_hd__clkbuf_1
*CAP
1 B[0] 0.000346167
2 *139:A 0
3 *3:17 0.000346167
4 *3:17 P[2] 2.43221e-05
5 *3:17 *7:14 4.56684e-06
6 *1:17 *3:17 2.61329e-05
*RES
1 B[0] *3:17 28.2148 
2 *3:17 *139:A 23 
*END

*D_NET *4 0.000690187
*CONN
*P B[1] I
*I *140:A I *D sky130_fd_sc_hd__dlymetal6s2s_1
*CAP
1 B[1] 0.000305972
2 *140:A 0.000305972
3 *140:A P[1] 7.82427e-05
*RES
1 B[1] *140:A 49.1918 
*END

*D_NET *5 0.000761479
*CONN
*P P[0] O
*I *141:X O *D sky130_fd_sc_hd__buf_2
*CAP
1 P[0] 8.65766e-05
2 *141:X 0.000278539
3 *5:14 0.000365116
4 P[0] P[3] 1.5289e-05
5 *5:14 P[3] 1.59585e-05
*RES
1 *141:X *5:14 49.9 
2 *5:14 P[0] 0.382667 
*END

*D_NET *6 0.000660095
*CONN
*P P[1] O
*I *142:X O *D sky130_fd_sc_hd__buf_2
*CAP
1 P[1] 0.000213308
2 *142:X 0.000213308
3 P[1] *14:8 7.46212e-05
4 *138:A P[1] 8.06147e-05
5 *140:A P[1] 7.82427e-05
*RES
1 *142:X P[1] 47.8691 
*END

*D_NET *7 0.000763907
*CONN
*P P[2] O
*I *143:X O *D sky130_fd_sc_hd__buf_2
*CAP
1 P[2] 7.58295e-05
2 *143:X 0.000277724
3 *7:14 0.000353553
4 P[2] P[3] 1.5289e-05
5 *7:14 P[3] 1.26232e-05
6 *3:17 P[2] 2.43221e-05
7 *3:17 *7:14 4.56684e-06
*RES
1 *143:X *7:14 49.9 
2 *7:14 P[2] 0.382667 
*END

*D_NET *8 0.000547919
*CONN
*P P[3] O
*I *144:X O *D sky130_fd_sc_hd__buf_2
*CAP
1 P[3] 0.000239447
2 *144:X 0.000239447
3 P[3] *17:10 9.86551e-06
4 P[0] P[3] 1.5289e-05
5 P[2] P[3] 1.5289e-05
6 *5:14 P[3] 1.59585e-05
7 *7:14 P[3] 1.26232e-05
*RES
1 *144:X P[3] 47.1648 
*END

*D_NET *11 0.000828493
*CONN
*I *136:C I *D sky130_fd_sc_hd__and3_1
*I *132:Y O *D sky130_fd_sc_hd__nand2_1
*CAP
1 *136:C 0
2 *132:Y 0.000241711
3 *11:10 0.000241711
4 *11:10 *133:A 7.07739e-05
5 *11:10 *133:B 0.000126847
6 *11:10 *136:A 0
7 *11:10 *14:26 7.13587e-05
8 *11:10 *15:8 3.22879e-05
9 *11:10 *16:19 1.15146e-05
10 *11:10 *20:10 3.22879e-05
*RES
1 *132:Y *11:10 29.2143 
2 *11:10 *136:C 23 
*END

*D_NET *12 0.000308501
*CONN
*I *134:A1 I *D sky130_fd_sc_hd__a21o_1
*I *131:Y O *D sky130_fd_sc_hd__inv_2
*CAP
1 *134:A1 9.0223e-05
2 *131:Y 9.0223e-05
3 *134:A1 *143:A 7.1349e-05
4 *134:A1 *13:22 5.67058e-05
*RES
1 *131:Y *134:A1 48.0507 
*END

*D_NET *13 0.00223369
*CONN
*I *132:B I *D sky130_fd_sc_hd__nand2_1
*I *133:D I *D sky130_fd_sc_hd__and4_1
*I *134:A2 I *D sky130_fd_sc_hd__a21o_1
*I *137:X O *D sky130_fd_sc_hd__buf_1
*CAP
1 *132:B 5.11342e-05
2 *133:D 0
3 *134:A2 0
4 *137:X 0.00038449
5 *13:22 0.000200942
6 *13:14 0.000355195
7 *13:10 0.000589877
8 *13:14 *133:B 0.000128723
9 *13:14 *15:8 9.84851e-05
10 *13:22 *143:A 9.84851e-05
11 *13:22 *144:A 1.14452e-05
12 *13:22 *14:26 9.168e-05
13 *13:22 *19:8 0
14 *13:22 *20:10 0.000166522
15 *134:A1 *13:22 5.67058e-05
*RES
1 *137:X *13:10 44.0693 
2 *13:10 *13:14 17.5271 
3 *13:14 *13:22 35.1164 
4 *13:22 *134:A2 23 
5 *13:14 *133:D 23 
6 *13:10 *132:B 38.8493 
*END

*D_NET *14 0.00587895
*CONN
*I *135:B I *D sky130_fd_sc_hd__xor2_1
*I *136:B I *D sky130_fd_sc_hd__and3_1
*I *133:C I *D sky130_fd_sc_hd__and4_1
*I *138:X O *D sky130_fd_sc_hd__buf_1
*CAP
1 *135:B 0
2 *136:B 0
3 *133:C 0
4 *138:X 0.000236152
5 *14:26 0.000253828
6 *14:18 0.00158364
7 *14:12 0.00154143
8 *14:8 0.000447768
9 *14:8 *18:8 0
10 *14:12 *16:6 0.000478219
11 *14:18 *16:6 5.67058e-05
12 *14:18 *16:8 0.00079297
13 *14:18 *16:19 8.6949e-05
14 *14:26 *133:A 9.58714e-05
15 *14:26 *16:19 5.50106e-05
16 *14:26 *19:8 0
17 P[1] *14:8 7.46212e-05
18 *138:A *14:8 1.27424e-05
19 *11:10 *14:26 7.13587e-05
20 *13:22 *14:26 9.168e-05
*RES
1 *138:X *14:8 42.7229 
2 *14:8 *14:12 20.8621 
3 *14:12 *14:18 22.5786 
4 *14:18 *14:26 34.205 
5 *14:26 *133:C 23 
6 *14:18 *136:B 23 
7 *14:12 *135:B 23 
*END

*D_NET *15 0.000913437
*CONN
*I *133:B I *D sky130_fd_sc_hd__and4_1
*I *132:A I *D sky130_fd_sc_hd__nand2_1
*I *139:X O *D sky130_fd_sc_hd__clkbuf_1
*CAP
1 *133:B 7.31542e-05
2 *132:A 2.00578e-05
3 *139:X 0.000170335
4 *15:8 0.000263547
5 *11:10 *133:B 0.000126847
6 *11:10 *15:8 3.22879e-05
7 *13:14 *133:B 0.000128723
8 *13:14 *15:8 9.84851e-05
*RES
1 *139:X *15:8 26.5007 
2 *15:8 *132:A 23.4971 
3 *15:8 *133:B 25.5271 
*END

*D_NET *16 0.00427263
*CONN
*I *135:A I *D sky130_fd_sc_hd__xor2_1
*I *131:A I *D sky130_fd_sc_hd__inv_2
*I *133:A I *D sky130_fd_sc_hd__and4_1
*I *136:A I *D sky130_fd_sc_hd__and3_1
*I *140:X O *D sky130_fd_sc_hd__dlymetal6s2s_1
*CAP
1 *135:A 0
2 *131:A 0
3 *133:A 3.18999e-05
4 *136:A 2.34823e-05
5 *140:X 0.000194416
6 *16:32 0.000123936
7 *16:19 0.000231713
8 *16:8 0.000879917
9 *16:6 0.000974974
10 *16:32 *19:8 0.000164282
11 *11:10 *133:A 7.07739e-05
12 *11:10 *136:A 0
13 *11:10 *16:19 1.15146e-05
14 *14:12 *16:6 0.000478219
15 *14:18 *16:6 5.67058e-05
16 *14:18 *16:8 0.00079297
17 *14:18 *16:19 8.6949e-05
18 *14:26 *133:A 9.58714e-05
19 *14:26 *16:19 5.50106e-05
*RES
1 *140:X *16:6 28.8621 
2 *16:6 *16:8 20.155 
3 *16:8 *136:A 23.4971 
4 *16:8 *16:19 2.42357 
5 *16:19 *133:A 24.0979 
6 *16:19 *16:32 32.61 
7 *16:32 *131:A 23 
8 *16:6 *135:A 23 
*END

*D_NET *17 0.000985863
*CONN
*I *141:A I *D sky130_fd_sc_hd__buf_2
*I *134:X O *D sky130_fd_sc_hd__a21o_1
*CAP
1 *141:A 0
2 *134:X 0.000441173
3 *17:10 0.000441173
4 *17:10 *143:A 9.36522e-05
5 *17:10 *144:A 0
6 P[3] *17:10 9.86551e-06
*RES
1 *134:X *17:10 45.6021 
2 *17:10 *141:A 38 
*END

*D_NET *18 0.000696354
*CONN
*I *142:A I *D sky130_fd_sc_hd__buf_2
*I *135:X O *D sky130_fd_sc_hd__xor2_1
*CAP
1 *142:A 0.000221948
2 *135:X 0.000126229
3 *18:8 0.000348177
4 *14:8 *18:8 0
*RES
1 *135:X *18:8 40.2579 
2 *18:8 *142:A 41.9564 
*END

*D_NET *19 0.00153857
*CONN
*I *143:A I *D sky130_fd_sc_hd__buf_2
*I *136:X O *D sky130_fd_sc_hd__and3_1
*CAP
1 *143:A 0.000315828
2 *136:X 0.000239574
3 *19:8 0.000555402
4 *134:A1 *143:A 7.1349e-05
5 *13:22 *143:A 9.84851e-05
6 *13:22 *19:8 0
7 *14:26 *19:8 0
8 *16:32 *19:8 0.000164282
9 *17:10 *143:A 9.36522e-05
*RES
1 *136:X *19:8 41.6664 
2 *19:8 *143:A 44.8357 
*END

*D_NET *20 0.00118285
*CONN
*I *144:A I *D sky130_fd_sc_hd__buf_2
*I *134:B1 I *D sky130_fd_sc_hd__a21o_1
*I *133:X O *D sky130_fd_sc_hd__and4_1
*CAP
1 *144:A 0.000348132
2 *134:B1 0
3 *133:X 0.000138164
4 *20:10 0.000486296
5 *11:10 *20:10 3.22879e-05
6 *13:22 *144:A 1.14452e-05
7 *13:22 *20:10 0.000166522
8 *17:10 *144:A 0
*RES
1 *133:X *20:10 40.8793 
2 *20:10 *134:B1 38 
3 *20:10 *144:A 44.09 
*END
