*SPEF "ieee 1481-1999"
*DESIGN "mult4_SARSA_RUIDO_e9_SARSA_RUIDO_e9_SARSA_RUIDO_e9_SARSA_RUIDO_e9"
*DATE "18:35:52 Tuesday September 16, 2025"
*VENDOR "The OpenROAD Project"
*PROGRAM "OpenROAD"
*VERSION "edf00dff99f6c40d67a30c0e22a8191c5d2ed9d6"
*DESIGN_FLOW "NAME_SCOPE LOCAL" "PIN_CAP NONE"
*DIVIDER /
*DELIMITER :
*BUS_DELIMITER []
*T_UNIT 1 NS
*C_UNIT 1 PF
*R_UNIT 1 OHM
*L_UNIT 1 HENRY

*NAME_MAP
*1 A[0]
*2 A[1]
*3 A[2]
*4 A[3]
*5 B[0]
*6 B[1]
*7 B[2]
*8 B[3]
*9 P[0]
*10 P[1]
*11 P[2]
*12 P[3]
*13 P[4]
*14 P[5]
*15 P[6]
*16 P[7]
*19 _00_
*20 _01_
*21 _02_
*22 _03_
*23 _04_
*24 _05_
*25 _06_
*26 _07_
*27 _08_
*28 _09_
*29 _10_
*30 _11_
*31 _12_
*32 _13_
*33 _14_
*34 _15_
*35 _16_
*36 _17_
*37 _18_
*38 _19_
*39 _20_
*40 _21_
*41 _22_
*42 _23_
*43 _24_
*44 _25_
*45 _26_
*46 _27_
*47 _28_
*48 _29_
*49 _30_
*50 _31_
*51 _32_
*52 _33_
*53 _34_
*54 _35_
*55 _36_
*56 _37_
*57 _38_
*58 _39_
*59 _40_
*60 _41_
*61 _42_
*62 _43_
*63 _44_
*64 _45_
*65 net1
*66 net10
*67 net11
*68 net12
*69 net13
*70 net14
*71 net15
*72 net16
*73 net2
*74 net3
*75 net4
*76 net5
*77 net6
*78 net7
*79 net8
*80 net9
*81 FILLER_0_15
*82 FILLER_0_23
*83 FILLER_0_3
*84 FILLER_0_38
*85 FILLER_0_51
*86 FILLER_0_57
*87 FILLER_0_62
*88 FILLER_0_70
*89 FILLER_0_78
*90 FILLER_1_15
*91 FILLER_1_3
*92 FILLER_1_31
*93 FILLER_1_41
*94 FILLER_2_16
*95 FILLER_2_29
*96 FILLER_2_3
*97 FILLER_2_42
*98 FILLER_2_46
*99 FILLER_2_52
*100 FILLER_2_64
*101 FILLER_2_73
*102 FILLER_2_77
*103 FILLER_3_24
*104 FILLER_3_3
*105 FILLER_3_32
*106 FILLER_4_17
*107 FILLER_4_25
*108 FILLER_4_29
*109 FILLER_4_3
*110 FILLER_4_41
*111 FILLER_4_53
*112 FILLER_4_65
*113 FILLER_4_9
*114 FILLER_5_11
*115 FILLER_5_19
*116 FILLER_5_27
*117 FILLER_5_40
*118 FILLER_5_52
*119 FILLER_5_63
*120 FILLER_5_71
*121 FILLER_6_10
*122 FILLER_6_17
*123 FILLER_6_24
*124 FILLER_6_29
*125 FILLER_6_46
*126 FILLER_6_60
*127 FILLER_7_15
*128 FILLER_7_27
*129 FILLER_7_3
*130 FILLER_7_38
*131 FILLER_7_50
*132 FILLER_7_57
*133 FILLER_7_65
*134 FILLER_8_17
*135 FILLER_8_25
*136 FILLER_8_3
*137 FILLER_8_47
*138 FILLER_8_65
*139 FILLER_8_77
*140 FILLER_8_9
*141 FILLER_9_19
*142 FILLER_9_27
*143 FILLER_9_29
*144 FILLER_9_41
*145 FILLER_9_49
*146 FILLER_9_64
*147 FILLER_9_7
*148 FILLER_9_74
*149 PHY_EDGE_ROW_0_Left_10
*150 PHY_EDGE_ROW_0_Right_0
*151 PHY_EDGE_ROW_1_Left_11
*152 PHY_EDGE_ROW_1_Right_1
*153 PHY_EDGE_ROW_2_Left_12
*154 PHY_EDGE_ROW_2_Right_2
*155 PHY_EDGE_ROW_3_Left_13
*156 PHY_EDGE_ROW_3_Right_3
*157 PHY_EDGE_ROW_4_Left_14
*158 PHY_EDGE_ROW_4_Right_4
*159 PHY_EDGE_ROW_5_Left_15
*160 PHY_EDGE_ROW_5_Right_5
*161 PHY_EDGE_ROW_6_Left_16
*162 PHY_EDGE_ROW_6_Right_6
*163 PHY_EDGE_ROW_7_Left_17
*164 PHY_EDGE_ROW_7_Right_7
*165 PHY_EDGE_ROW_8_Left_18
*166 PHY_EDGE_ROW_8_Right_8
*167 PHY_EDGE_ROW_9_Left_19
*168 PHY_EDGE_ROW_9_Right_9
*169 TAP_TAPCELL_ROW_0_20
*170 TAP_TAPCELL_ROW_0_21
*171 TAP_TAPCELL_ROW_1_22
*172 TAP_TAPCELL_ROW_2_23
*173 TAP_TAPCELL_ROW_3_24
*174 TAP_TAPCELL_ROW_4_25
*175 TAP_TAPCELL_ROW_5_26
*176 TAP_TAPCELL_ROW_6_27
*177 TAP_TAPCELL_ROW_7_28
*178 TAP_TAPCELL_ROW_8_29
*179 TAP_TAPCELL_ROW_9_30
*180 TAP_TAPCELL_ROW_9_31
*181 _46_
*182 _47_
*183 _48_
*184 _49_
*185 _50_
*186 _51_
*187 _52_
*188 _53_
*189 _54_
*190 _55_
*191 _56_
*192 _57_
*193 _58_
*194 _59_
*195 _60_
*196 _61_
*197 _62_
*198 _63_
*199 _64_
*200 _65_
*201 _66_
*202 _67_
*203 _68_
*204 _69_
*205 _70_
*206 _71_
*207 _72_
*208 _73_
*209 _74_
*210 _75_
*211 _76_
*212 _77_
*213 _78_
*214 _79_
*215 _80_
*216 _81_
*217 _82_
*218 _83_
*219 _84_
*220 _85_
*221 _86_
*222 _87_
*223 _88_
*224 _89_
*225 _90_
*226 _91_
*227 _92_
*228 _93_
*229 _94_
*230 _95_
*231 _96_
*232 _97_
*233 _98_
*234 _99_
*235 input1
*236 input2
*237 input3
*238 input4
*239 input5
*240 input6
*241 input7
*242 input8
*243 output10
*244 output11
*245 output12
*246 output13
*247 output14
*248 output15
*249 output16
*250 output9

*PORTS
A[0] I
A[1] I
A[2] I
A[3] I
B[0] I
B[1] I
B[2] I
B[3] I
P[0] O
P[1] O
P[2] O
P[3] O
P[4] O
P[5] O
P[6] O
P[7] O

*D_NET *1 0.00124678
*CONN
*P A[0] I
*I *235:A I *D sky130_fd_sc_hd__clkbuf_2
*CAP
1 A[0] 0.000414417
2 *235:A 0.000414417
3 *235:A *201:D 9.99853e-05
4 *235:A *236:A 7.569e-05
5 *235:A *73:6 5.52302e-05
6 *235:A *73:19 0.000187041
*RES
1 A[0] *235:A 23.175 
*END

*D_NET *2 0.00182317
*CONN
*P A[1] I
*I *236:A I *D sky130_fd_sc_hd__buf_1
*CAP
1 A[1] 0.000570899
2 *236:A 0.000570899
3 *236:A *201:D 0.000141729
4 *236:A *205:A2 0.000221196
5 *236:A *241:A 0
6 *236:A *73:6 7.17136e-05
7 *236:A *79:14 0.000171041
8 *235:A *236:A 7.569e-05
*RES
1 A[1] *236:A 27.4607 
*END

*D_NET *3 0.000664185
*CONN
*P A[2] I
*I *237:A I *D sky130_fd_sc_hd__clkbuf_2
*CAP
1 A[2] 0.000243479
2 *237:A 0.000243479
3 *237:A P[2] 9.14922e-05
4 *237:A *238:A 8.57347e-05
*RES
1 A[2] *237:A 19.7128 
*END

*D_NET *4 0.000515733
*CONN
*P A[3] I
*I *238:A I *D sky130_fd_sc_hd__buf_1
*CAP
1 A[3] 0.000210153
2 *238:A 0.000210153
3 *238:A P[6] 0
4 *238:A *220:A 9.69119e-06
5 *237:A *238:A 8.57347e-05
*RES
1 A[3] *238:A 18.73 
*END

*D_NET *5 0.000439525
*CONN
*P B[0] I
*I *239:A I *D sky130_fd_sc_hd__buf_1
*CAP
1 B[0] 0.000138587
2 *239:A 0.000138587
3 *239:A P[0] 7.66163e-05
4 *239:A P[2] 8.57347e-05
5 *239:A *25:10 0
*RES
1 B[0] *239:A 18.1229 
*END

*D_NET *6 0.000857519
*CONN
*P B[1] I
*I *240:A I *D sky130_fd_sc_hd__buf_1
*CAP
1 B[1] 0.000414304
2 *240:A 0.000414304
3 *240:A P[1] 0
4 *240:A *184:C 0
5 *240:A *242:A 0
6 *240:A *79:6 2.89114e-05
*RES
1 B[1] *240:A 21.8357 
*END

*D_NET *7 0.00108015
*CONN
*P B[2] I
*I *241:A I *D sky130_fd_sc_hd__clkbuf_2
*CAP
1 B[2] 0.000476072
2 *241:A 0.000476072
3 *241:A P[1] 0
4 *241:A *201:D 5.65955e-05
5 *241:A *20:12 5.49489e-05
6 *241:A *73:19 0
7 *241:A *79:14 1.64621e-05
8 *236:A *241:A 0
*RES
1 B[2] *241:A 23.0143 
*END

*D_NET *8 0.000875953
*CONN
*P B[3] I
*I *242:A I *D sky130_fd_sc_hd__clkbuf_2
*CAP
1 B[3] 0.000419614
2 *242:A 0.000419614
3 *242:A *79:6 3.67257e-05
4 *240:A *242:A 0
*RES
1 B[3] *242:A 21.9429 
*END

*D_NET *9 0.000500662
*CONN
*P P[0] O
*I *250:X O *D sky130_fd_sc_hd__buf_2
*CAP
1 P[0] 0.000212023
2 *250:X 0.000212023
3 *239:A P[0] 7.66163e-05
*RES
1 *250:X P[0] 18.1949 
*END

*D_NET *10 0.000967005
*CONN
*P P[1] O
*I *243:X O *D sky130_fd_sc_hd__buf_2
*CAP
1 P[1] 0.000450666
2 *243:X 0.000450666
3 P[1] *184:C 1.02504e-05
4 P[1] *243:A 2.89114e-05
5 P[1] *79:6 2.65105e-05
6 *240:A P[1] 0
7 *241:A P[1] 0
*RES
1 *243:X P[1] 22.05 
*END

*D_NET *11 0.000667004
*CONN
*P P[2] O
*I *244:X O *D sky130_fd_sc_hd__buf_2
*CAP
1 P[2] 0.000224093
2 *244:X 0.000224093
3 P[2] *244:A 4.15914e-05
4 *237:A P[2] 9.14922e-05
5 *239:A P[2] 8.57347e-05
*RES
1 *244:X P[2] 19.4092 
*END

*D_NET *12 0.000964741
*CONN
*P P[3] O
*I *245:X O *D sky130_fd_sc_hd__buf_2
*CAP
1 P[3] 0.000423865
2 *245:X 0.000423865
3 P[3] P[4] 8.80998e-05
4 P[3] *245:A 2.89114e-05
*RES
1 *245:X P[3] 22.9774 
*END

*D_NET *13 0.000787924
*CONN
*P P[4] O
*I *246:X O *D sky130_fd_sc_hd__buf_2
*CAP
1 P[4] 0.000317921
2 *246:X 0.000317921
3 P[4] P[5] 0
4 P[4] *246:A 6.39829e-05
5 P[3] P[4] 8.80998e-05
*RES
1 *246:X P[4] 20.0151 
*END

*D_NET *14 0.000638314
*CONN
*P P[5] O
*I *247:X O *D sky130_fd_sc_hd__buf_2
*CAP
1 P[5] 0.000319157
2 *247:X 0.000319157
3 P[5] *247:A 0
4 P[4] P[5] 0
*RES
1 *247:X P[5] 19.4092 
*END

*D_NET *15 0.000636131
*CONN
*P P[6] O
*I *248:X O *D sky130_fd_sc_hd__buf_2
*CAP
1 P[6] 0.000318065
2 *248:X 0.000318065
3 *238:A P[6] 0
*RES
1 *248:X P[6] 19.4092 
*END

*D_NET *16 0.000911701
*CONN
*P P[7] O
*I *249:X O *D sky130_fd_sc_hd__buf_2
*CAP
1 P[7] 0.00045585
2 *249:X 0.00045585
*RES
1 *249:X P[7] 22.8536 
*END

*D_NET *19 0.00129769
*CONN
*I *182:A I *D sky130_fd_sc_hd__inv_2
*I *188:C I *D sky130_fd_sc_hd__and4_1
*I *189:A3 I *D sky130_fd_sc_hd__a31o_1
*I *181:Y O *D sky130_fd_sc_hd__nand2_1
*CAP
1 *182:A 8.79629e-05
2 *188:C 0
3 *189:A3 0
4 *181:Y 7.15891e-05
5 *19:17 0.00017227
6 *19:8 0.000155896
7 *182:A *188:D 5.71472e-05
8 *19:8 *188:A 0.000103039
9 *19:8 *188:B 2.44318e-05
10 *19:8 *188:D 2.44557e-05
11 *19:8 *189:B1 5.6671e-05
12 *19:8 *22:52 3.48705e-05
13 *19:8 *77:16 0.000186662
14 *19:17 *188:A 7.32955e-05
15 *19:17 *188:B 0.000232399
16 *19:17 *188:D 1.69961e-05
*RES
1 *181:Y *19:8 12.3179 
2 *19:8 *189:A3 9.3 
3 *19:8 *19:17 3.01786 
4 *19:17 *188:C 9.3 
5 *19:17 *182:A 11.0679 
*END

*D_NET *20 0.00295142
*CONN
*I *184:A_N I *D sky130_fd_sc_hd__and3b_1
*I *202:C I *D sky130_fd_sc_hd__nand4_1
*I *205:B1 I *D sky130_fd_sc_hd__a31o_1
*I *183:X O *D sky130_fd_sc_hd__and4_1
*CAP
1 *184:A_N 0
2 *202:C 0
3 *205:B1 8.83113e-05
4 *183:X 0.000175327
5 *20:24 0.000424818
6 *20:12 0.000511834
7 *205:B1 *202:B 2.44318e-05
8 *205:B1 *205:A1 3.67142e-05
9 *205:B1 *37:12 0.000104956
10 *205:B1 *65:18 6.05161e-06
11 *205:B1 *65:22 4.70078e-05
12 *20:12 *184:C 0.00012104
13 *20:12 *79:6 9.4496e-05
14 *20:12 *79:14 5.49544e-05
15 *20:24 *186:A 1.02132e-05
16 *20:24 *193:A 4.27338e-05
17 *20:24 *193:B 0.000178425
18 *20:24 *201:D 5.33614e-05
19 *20:24 *202:B 0.000139907
20 *20:24 *22:52 3.97677e-05
21 *20:24 *28:12 1.64616e-05
22 *20:24 *65:14 0.000135028
23 *20:24 *65:16 0.000244869
24 *20:24 *65:18 5.63215e-05
25 *20:24 *78:23 0.000143967
26 *20:24 *79:53 0.000145477
27 *241:A *20:12 5.49489e-05
*RES
1 *183:X *20:12 22.7286 
2 *20:12 *20:24 18.6964 
3 *20:24 *205:B1 11.9071 
4 *20:24 *202:C 9.3 
5 *20:12 *184:A_N 9.3 
*END

*D_NET *21 0.0055846
*CONN
*I *191:A I *D sky130_fd_sc_hd__xnor2_1
*I *196:A1_N I *D sky130_fd_sc_hd__o2bb2a_1
*I *195:C I *D sky130_fd_sc_hd__and4b_1
*I *197:B2 I *D sky130_fd_sc_hd__a2bb2o_1
*I *185:Y O *D sky130_fd_sc_hd__nand2_1
*CAP
1 *191:A 2.435e-05
2 *196:A1_N 0.000287098
3 *195:C 0.000189447
4 *197:B2 1.93041e-05
5 *185:Y 0.000111131
6 *21:29 0.000735397
7 *21:14 0.000843901
8 *21:6 0.000701227
9 *191:A *185:A 4.61598e-05
10 *191:A *212:A3 0
11 *195:C *197:B1 0.000223893
12 *195:C *29:22 2.36643e-05
13 *196:A1_N *195:D 7.58176e-05
14 *196:A1_N *197:A1_N 0.000146071
15 *196:A1_N *222:A3 5.72546e-05
16 *196:A1_N *28:27 0.000270589
17 *196:A1_N *31:10 0.000144072
18 *196:A1_N *47:16 0.000152831
19 *196:A1_N *79:77 1.07616e-05
20 *197:B2 *197:B1 5.52238e-05
21 *197:B2 *39:14 9.80173e-05
22 *21:6 *185:A 0.000249834
23 *21:14 *185:A 3.70665e-05
24 *21:14 *203:A 5.52302e-05
25 *21:14 *204:A_N 0.00010096
26 *21:14 *204:B 0.000172536
27 *21:14 *212:A3 0.00021945
28 *21:14 *74:25 5.33005e-05
29 *21:14 *74:34 1.38323e-05
30 *21:14 *76:36 5.52302e-05
31 *21:14 *76:43 0.00018738
32 *21:29 *197:B1 0.000223567
*RES
1 *185:Y *21:6 11.8893 
2 *21:6 *21:14 11.2679 
3 *21:14 *197:B2 10.2464 
4 *21:14 *21:29 4.28571 
5 *21:29 *195:C 11.8893 
6 *21:29 *196:A1_N 25.8491 
7 *21:6 *191:A 10.0321 
*END

*D_NET *22 0.00498509
*CONN
*I *188:D I *D sky130_fd_sc_hd__and4_1
*I *189:B1 I *D sky130_fd_sc_hd__a31o_1
*I *197:A1_N I *D sky130_fd_sc_hd__a2bb2o_1
*I *196:B1 I *D sky130_fd_sc_hd__o2bb2a_1
*I *186:X O *D sky130_fd_sc_hd__and2_1
*CAP
1 *188:D 0.000160755
2 *189:B1 4.6546e-05
3 *197:A1_N 0.000207964
4 *196:B1 0.000117048
5 *186:X 9.32066e-05
6 *22:52 0.000741671
7 *22:10 0.000458843
8 *22:6 0.000761407
9 *188:D *188:B 0.000274294
10 *188:D *25:10 0.000188586
11 *196:B1 *187:A 1.02504e-05
12 *196:B1 *28:12 1.00332e-05
13 *197:A1_N *28:27 0.000171954
14 *197:A1_N *79:77 1.0033e-05
15 *22:6 *65:14 4.18895e-05
16 *22:6 *65:16 0.000100604
17 *22:10 *187:A 0.000214733
18 *22:10 *73:19 9.56005e-05
19 *22:10 *79:64 0
20 *22:52 *181:B 0.000230482
21 *22:52 *183:B 0.000274288
22 *22:52 *193:B 2.08721e-05
23 *22:52 *35:12 5.80706e-06
24 *22:52 *65:14 9.41642e-05
25 *22:52 *73:39 0.000181345
26 *22:52 *73:57 8.43535e-06
27 *22:52 *77:16 9.22103e-06
28 *22:52 *77:39 7.90803e-05
29 *22:52 *78:42 0
30 *22:52 *79:53 0
31 *182:A *188:D 5.71472e-05
32 *196:A1_N *197:A1_N 0.000146071
33 *19:8 *188:D 2.44557e-05
34 *19:8 *189:B1 5.6671e-05
35 *19:8 *22:52 3.48705e-05
36 *19:17 *188:D 1.69961e-05
37 *20:24 *22:52 3.97677e-05
*RES
1 *186:X *22:6 10.6571 
2 *22:6 *22:10 7.66071 
3 *22:10 *196:B1 15.9071 
4 *22:10 *197:A1_N 17.7107 
5 *22:6 *22:52 19.9107 
6 *22:52 *189:B1 10.5634 
7 *22:52 *188:D 13.9429 
*END

*D_NET *23 0.000848521
*CONN
*I *195:D I *D sky130_fd_sc_hd__and4b_1
*I *187:Y O *D sky130_fd_sc_hd__nand2_1
*CAP
1 *195:D 0.000167666
2 *187:Y 0.000167666
3 *195:D *197:B1 4.10843e-05
4 *195:D *222:A3 5.41794e-05
5 *195:D *29:22 0.000111776
6 *195:D *31:10 0.00012401
7 *195:D *39:14 0.000106323
8 *196:A1_N *195:D 7.58176e-05
*RES
1 *187:Y *195:D 31.658 
*END

*D_NET *24 0.00111306
*CONN
*I *212:B1 I *D sky130_fd_sc_hd__a31o_1
*I *190:A_N I *D sky130_fd_sc_hd__and2b_1
*I *188:X O *D sky130_fd_sc_hd__and4_1
*CAP
1 *212:B1 0.000112938
2 *190:A_N 3.38375e-05
3 *188:X 0.000152132
4 *24:12 0.000298907
5 *190:A_N *76:8 0.00010096
6 *212:B1 *191:B 9.11365e-06
7 *212:B1 *203:A 0
8 *212:B1 *212:A2 5.80706e-06
9 *212:B1 *212:A3 0.000115467
10 *212:B1 *25:10 8.32242e-05
11 *212:B1 *47:16 0
12 *212:B1 *76:36 0
13 *24:12 *25:10 3.0285e-05
14 *24:12 *76:8 0.000170385
*RES
1 *188:X *24:12 21.4071 
2 *24:12 *190:A_N 10.2464 
3 *24:12 *212:B1 21.1571 
*END

*D_NET *25 0.0014474
*CONN
*I *212:A3 I *D sky130_fd_sc_hd__a31o_1
*I *190:B I *D sky130_fd_sc_hd__and2b_1
*I *189:X O *D sky130_fd_sc_hd__a31o_1
*CAP
1 *212:A3 0.000109565
2 *190:B 0
3 *189:X 0.000221748
4 *25:10 0.000331313
5 *212:A3 *185:A 4.13496e-05
6 *212:A3 *191:B 5.01117e-05
7 *212:A3 *76:43 5.62995e-05
8 *25:10 *203:A 0
9 *188:D *25:10 0.000188586
10 *191:A *212:A3 0
11 *212:B1 *212:A3 0.000115467
12 *212:B1 *25:10 8.32242e-05
13 *239:A *25:10 0
14 *21:14 *212:A3 0.00021945
15 *24:12 *25:10 3.0285e-05
*RES
1 *189:X *25:10 17.8179 
2 *25:10 *190:B 13.8 
3 *25:10 *212:A3 17.6393 
*END

*D_NET *26 0.000227199
*CONN
*I *191:B I *D sky130_fd_sc_hd__xnor2_1
*I *190:X O *D sky130_fd_sc_hd__and2b_1
*CAP
1 *191:B 8.39868e-05
2 *190:X 8.39868e-05
3 *212:A3 *191:B 5.01117e-05
4 *212:B1 *191:B 9.11365e-06
*RES
1 *190:X *191:B 29.2429 
*END

*D_NET *27 0.00295356
*CONN
*I *226:C I *D sky130_fd_sc_hd__and3_1
*I *198:A I *D sky130_fd_sc_hd__or3_1
*I *199:B1 I *D sky130_fd_sc_hd__o21ai_1
*I *192:Y O *D sky130_fd_sc_hd__nand2_1
*CAP
1 *226:C 0.000392628
2 *198:A 0.000146229
3 *199:B1 1.9555e-05
4 *192:Y 0
5 *27:10 0.000467301
6 *27:4 0.000694145
7 *198:A *199:A1 5.99152e-05
8 *198:A *199:A2 5.49489e-05
9 *198:A *34:10 7.15905e-06
10 *199:B1 *198:C 2.04825e-05
11 *199:B1 *222:A3 5.83233e-05
12 *199:B1 *31:10 3.34295e-05
13 *226:C *216:C 1.48924e-05
14 *226:C *226:B 1.24066e-05
15 *226:C *59:10 1.02504e-05
16 *226:C *74:64 0.000129534
17 *226:C *74:78 0
18 *226:C *74:103 0
19 *226:C *78:66 1.51489e-05
20 *226:C *79:77 0.000142856
21 *226:C *79:90 0.000360015
22 *27:10 *222:A1 9.94037e-05
23 *27:10 *222:A3 0.000150632
24 *27:10 *56:16 3.34366e-05
25 *27:10 *78:66 3.08664e-05
26 *27:10 *79:77 0
*RES
1 *192:Y *27:4 9.3 
2 *27:4 *27:10 9.53571 
3 *27:10 *199:B1 14.5321 
4 *27:10 *198:A 16.4071 
5 *27:4 *226:C 25.2107 
*END

*D_NET *28 0.00202687
*CONN
*I *197:A2_N I *D sky130_fd_sc_hd__a2bb2o_1
*I *195:A_N I *D sky130_fd_sc_hd__and4b_1
*I *196:B2 I *D sky130_fd_sc_hd__o2bb2a_1
*I *193:Y O *D sky130_fd_sc_hd__nand2_1
*CAP
1 *197:A2_N 0
2 *195:A_N 7.69969e-05
3 *196:B2 0
4 *193:Y 0.000140147
5 *28:27 0.000256048
6 *28:12 0.000319198
7 *195:A_N *197:B1 0.000143673
8 *195:A_N *39:14 0.000136465
9 *28:12 *187:A 5.10255e-05
10 *28:12 *193:A 1.33343e-05
11 *28:27 *187:B 0.000140856
12 *28:27 *47:16 8.54181e-05
13 *28:27 *79:77 0.000194667
14 *196:A1_N *28:27 0.000270589
15 *196:B1 *28:12 1.00332e-05
16 *197:A1_N *28:27 0.000171954
17 *20:24 *28:12 1.64616e-05
*RES
1 *193:Y *28:12 20.4786 
2 *28:12 *196:B2 9.3 
3 *28:12 *28:27 14.9821 
4 *28:27 *195:A_N 11.6214 
5 *28:27 *197:A2_N 9.3 
*END

*D_NET *29 0.00339287
*CONN
*I *196:A2_N I *D sky130_fd_sc_hd__o2bb2a_1
*I *197:B1 I *D sky130_fd_sc_hd__a2bb2o_1
*I *195:B I *D sky130_fd_sc_hd__and4b_1
*I *194:X O *D sky130_fd_sc_hd__and2_1
*CAP
1 *196:A2_N 0
2 *197:B1 0.000177825
3 *195:B 0
4 *194:X 0.000425644
5 *29:22 0.000509995
6 *29:6 0.000757814
7 *197:B1 *39:14 5.82302e-05
8 *29:6 *47:16 0.000605682
9 *29:22 *205:A3 2.8266e-06
10 *29:22 *30:10 6.05161e-06
11 *29:22 *39:14 2.59237e-05
12 *195:A_N *197:B1 0.000143673
13 *195:C *197:B1 0.000223893
14 *195:C *29:22 2.36643e-05
15 *195:D *197:B1 4.10843e-05
16 *195:D *29:22 0.000111776
17 *197:B2 *197:B1 5.52238e-05
18 *21:29 *197:B1 0.000223567
*RES
1 *194:X *29:6 15.175 
2 *29:6 *29:22 15.5536 
3 *29:22 *195:B 9.3 
4 *29:22 *197:B1 14.925 
5 *29:6 *196:A2_N 9.3 
*END

*D_NET *30 0.00151808
*CONN
*I *222:B1 I *D sky130_fd_sc_hd__a31oi_2
*I *199:A1 I *D sky130_fd_sc_hd__o21ai_1
*I *198:B I *D sky130_fd_sc_hd__or3_1
*I *195:X O *D sky130_fd_sc_hd__and4b_1
*CAP
1 *222:B1 0.000186271
2 *199:A1 7.47988e-05
3 *198:B 4.12081e-05
4 *195:X 0.000261037
5 *30:21 0.000318747
6 *30:10 0.000359922
7 *198:B *34:10 5.49553e-05
8 *199:A1 *34:10 0.000143976
9 *222:B1 *198:C 7.7159e-06
10 *222:B1 *209:A1 0
11 *222:B1 *209:A2 0
12 *30:10 *39:14 3.47956e-06
13 *30:21 *209:A2 0
14 *198:A *199:A1 5.99152e-05
15 *29:22 *30:10 6.05161e-06
*RES
1 *195:X *30:10 17.8 
2 *30:10 *198:B 14.3357 
3 *30:10 *30:21 0.732143 
4 *30:21 *199:A1 15.9964 
5 *30:21 *222:B1 16.8893 
*END

*D_NET *31 0.00205137
*CONN
*I *198:C I *D sky130_fd_sc_hd__or3_1
*I *199:A2 I *D sky130_fd_sc_hd__o21ai_1
*I *196:X O *D sky130_fd_sc_hd__o2bb2a_1
*CAP
1 *198:C 0.000140922
2 *199:A2 1.65857e-05
3 *196:X 0.000557479
4 *31:10 0.000714987
5 *199:A2 *34:10 1.80632e-05
6 *31:10 *222:A3 0.000196038
7 *31:10 *47:16 2.26403e-05
8 *195:D *31:10 0.00012401
9 *196:A1_N *31:10 0.000144072
10 *198:A *199:A2 5.49489e-05
11 *199:B1 *198:C 2.04825e-05
12 *199:B1 *31:10 3.34295e-05
13 *222:B1 *198:C 7.7159e-06
*RES
1 *196:X *31:10 23.6036 
2 *31:10 *199:A2 14.3357 
3 *31:10 *198:C 15.7107 
*END

*D_NET *32 0.00144348
*CONN
*I *222:A3 I *D sky130_fd_sc_hd__a31oi_2
*I *197:X O *D sky130_fd_sc_hd__a2bb2o_1
*CAP
1 *222:A3 0.000381093
2 *197:X 0.000381093
3 *222:A3 *222:A1 5.49544e-05
4 *222:A3 *222:A2 5.49544e-05
5 *222:A3 *39:14 5.49544e-05
6 *195:D *222:A3 5.41794e-05
7 *196:A1_N *222:A3 5.72546e-05
8 *199:B1 *222:A3 5.83233e-05
9 *27:10 *222:A3 0.000150632
10 *31:10 *222:A3 0.000196038
*RES
1 *197:X *222:A3 36.6893 
*END

*D_NET *33 0.000971747
*CONN
*I *208:A I *D sky130_fd_sc_hd__and3_1
*I *209:A1 I *D sky130_fd_sc_hd__a21o_1
*I *198:X O *D sky130_fd_sc_hd__or3_1
*CAP
1 *208:A 0
2 *209:A1 0.000255084
3 *198:X 0.0001789
4 *33:8 0.000433985
5 *209:A1 *209:A2 3.34672e-05
6 *33:8 *34:10 7.03103e-05
7 *222:B1 *209:A1 0
*RES
1 *198:X *33:8 11.9071 
2 *33:8 *209:A1 21.4071 
3 *33:8 *208:A 9.3 
*END

*D_NET *34 0.00152684
*CONN
*I *208:B I *D sky130_fd_sc_hd__and3_1
*I *209:A2 I *D sky130_fd_sc_hd__a21o_1
*I *199:Y O *D sky130_fd_sc_hd__o21ai_1
*CAP
1 *208:B 2.23854e-05
2 *209:A2 0.000156112
3 *199:Y 0.000372038
4 *34:10 0.000550536
5 *209:A2 *208:C 1.32261e-05
6 *209:A2 *209:B1 5.26091e-05
7 *209:A2 *42:10 3.2006e-05
8 *198:A *34:10 7.15905e-06
9 *198:B *34:10 5.49553e-05
10 *199:A1 *34:10 0.000143976
11 *199:A2 *34:10 1.80632e-05
12 *209:A1 *209:A2 3.34672e-05
13 *222:B1 *209:A2 0
14 *30:21 *209:A2 0
15 *33:8 *34:10 7.03103e-05
*RES
1 *199:Y *34:10 15.7286 
2 *34:10 *209:A2 21.6929 
3 *34:10 *208:B 9.72857 
*END

*D_NET *35 0.00252288
*CONN
*I *218:A I *D sky130_fd_sc_hd__xnor2_1
*I *227:A1 I *D sky130_fd_sc_hd__a21o_1
*I *200:X O *D sky130_fd_sc_hd__and4_1
*CAP
1 *218:A 0.000197908
2 *227:A1 0
3 *200:X 0.000677533
4 *35:12 0.000875441
5 *218:A *218:B 0.000164903
6 *218:A *74:8 1.74352e-05
7 *35:12 *204:C 8.22802e-05
8 *35:12 *218:B 5.33005e-05
9 *35:12 *38:19 0
10 *35:12 *74:10 0
11 *35:12 *74:60 0
12 *35:12 *77:39 4.06875e-05
13 *35:12 *78:42 5.80706e-06
14 *35:12 *78:51 6.09476e-05
15 *35:12 *78:64 0.000340831
16 *22:52 *35:12 5.80706e-06
*RES
1 *200:X *35:12 32.0679 
2 *35:12 *227:A1 9.3 
3 *35:12 *218:A 13.1393 
*END

*D_NET *36 0.00155031
*CONN
*I *205:A3 I *D sky130_fd_sc_hd__a31o_1
*I *202:D I *D sky130_fd_sc_hd__nand4_1
*I *201:Y O *D sky130_fd_sc_hd__nand4_1
*CAP
1 *205:A3 0.00040755
2 *202:D 0
3 *201:Y 5.93323e-05
4 *36:8 0.000466882
5 *205:A3 *202:B 2.84398e-05
6 *205:A3 *37:12 0
7 *205:A3 *47:16 0.00040381
8 *36:8 *201:A 0.000100823
9 *36:8 *202:A 0
10 *36:8 *202:B 8.06427e-05
11 *29:22 *205:A3 2.8266e-06
*RES
1 *201:Y *36:8 15.7464 
2 *36:8 *202:D 13.8 
3 *36:8 *205:A3 29.9071 
*END

*D_NET *37 0.00233751
*CONN
*I *206:A I *D sky130_fd_sc_hd__nand3_1
*I *207:B1_N I *D sky130_fd_sc_hd__a21bo_1
*I *211:A1 I *D sky130_fd_sc_hd__a21o_1
*I *202:Y O *D sky130_fd_sc_hd__nand4_1
*CAP
1 *206:A 0.000169079
2 *207:B1_N 0
3 *211:A1 4.59084e-05
4 *202:Y 0.000415231
5 *37:14 4.59084e-05
6 *37:12 0.000584309
7 *206:A *206:B 9.12446e-05
8 *206:A *206:C 0.00014209
9 *206:A *40:10 3.17148e-05
10 *206:A *42:10 0
11 *206:A *48:10 0
12 *206:A *48:19 0
13 *211:A1 *211:A2 5.52238e-05
14 *211:A1 *211:B1 4.81734e-05
15 *211:A1 *39:20 9.99148e-05
16 *37:12 *205:A1 1.32552e-05
17 *37:12 *206:B 1.52978e-05
18 *37:12 *213:A 5.66471e-05
19 *37:12 *233:B1 0
20 *37:12 *40:10 0.000418554
21 *205:A3 *37:12 0
22 *205:B1 *37:12 0.000104956
*RES
1 *202:Y *37:12 22.8357 
2 *37:12 *37:14 4.5 
3 *37:14 *211:A1 10.675 
4 *37:14 *207:B1_N 9.3 
5 *37:12 *206:A 17.9607 
*END

*D_NET *38 0.00167686
*CONN
*I *218:B I *D sky130_fd_sc_hd__xnor2_1
*I *227:A2 I *D sky130_fd_sc_hd__a21o_1
*I *204:A_N I *D sky130_fd_sc_hd__and3b_1
*I *203:X O *D sky130_fd_sc_hd__and4_1
*CAP
1 *218:B 0.000105079
2 *227:A2 0
3 *204:A_N 6.66332e-05
4 *203:X 0
5 *38:19 0.000271076
6 *38:4 0.00023263
7 *204:A_N *74:34 1.97695e-05
8 *218:B *74:8 0.000315158
9 *38:19 *74:10 0.000299274
10 *38:19 *74:60 4.80729e-05
11 *218:A *218:B 0.000164903
12 *21:14 *204:A_N 0.00010096
13 *35:12 *218:B 5.33005e-05
14 *35:12 *38:19 0
*RES
1 *203:X *38:4 9.3 
2 *38:4 *204:A_N 10.9786 
3 *38:4 *38:19 13.375 
4 *38:19 *227:A2 9.3 
5 *38:19 *218:B 13.2643 
*END

*D_NET *39 0.0034973
*CONN
*I *207:A1 I *D sky130_fd_sc_hd__a21bo_1
*I *206:B I *D sky130_fd_sc_hd__nand3_1
*I *211:B1 I *D sky130_fd_sc_hd__a21o_1
*I *204:X O *D sky130_fd_sc_hd__and3b_1
*CAP
1 *207:A1 0
2 *206:B 8.26423e-05
3 *211:B1 7.9263e-05
4 *204:X 0.000843441
5 *39:20 0.000299763
6 *39:14 0.000981299
7 *206:B *213:A 0.000103981
8 *206:B *41:8 7.83659e-05
9 *206:B *48:10 0
10 *211:B1 *233:A1 2.89016e-05
11 *211:B1 *233:A2 2.34059e-05
12 *39:14 *207:A2 5.71472e-05
13 *39:14 *42:10 3.48705e-05
14 *39:20 *207:A2 0.000126314
15 *39:20 *211:A2 1.98839e-05
16 *195:A_N *39:14 0.000136465
17 *195:D *39:14 0.000106323
18 *197:B1 *39:14 5.82302e-05
19 *197:B2 *39:14 9.80173e-05
20 *206:A *206:B 9.12446e-05
21 *211:A1 *211:B1 4.81734e-05
22 *211:A1 *39:20 9.99148e-05
23 *222:A3 *39:14 5.49544e-05
24 *29:22 *39:14 2.59237e-05
25 *30:10 *39:14 3.47956e-06
26 *37:12 *206:B 1.52978e-05
*RES
1 *204:X *39:14 22.7464 
2 *39:14 *39:20 3.14286 
3 *39:20 *211:B1 11.1036 
4 *39:20 *206:B 20.8536 
5 *39:14 *207:A1 9.3 
*END

*D_NET *40 0.00189297
*CONN
*I *206:C I *D sky130_fd_sc_hd__nand3_1
*I *207:A2 I *D sky130_fd_sc_hd__a21bo_1
*I *211:A2 I *D sky130_fd_sc_hd__a21o_1
*I *205:X O *D sky130_fd_sc_hd__a31o_1
*CAP
1 *206:C 0.000107996
2 *207:A2 5.81985e-05
3 *211:A2 5.12151e-05
4 *205:X 0.000269824
5 *40:12 0.000109414
6 *40:10 0.00037782
7 *206:C *42:10 3.5707e-05
8 *207:A2 *42:10 3.18676e-05
9 *206:A *206:C 0.00014209
10 *206:A *40:10 3.17148e-05
11 *211:A1 *211:A2 5.52238e-05
12 *37:12 *40:10 0.000418554
13 *39:14 *207:A2 5.71472e-05
14 *39:20 *207:A2 0.000126314
15 *39:20 *211:A2 1.98839e-05
*RES
1 *205:X *40:10 19.1214 
2 *40:10 *40:12 4.5 
3 *40:12 *211:A2 10.2464 
4 *40:12 *207:A2 11.0679 
5 *40:10 *206:C 16.2821 
*END

*D_NET *41 0.00131489
*CONN
*I *233:A1 I *D sky130_fd_sc_hd__a21oi_1
*I *213:A I *D sky130_fd_sc_hd__and3_1
*I *206:Y O *D sky130_fd_sc_hd__nand3_1
*CAP
1 *233:A1 0.000178939
2 *213:A 0.000201061
3 *206:Y 4.41581e-05
4 *41:8 0.000424158
5 *213:A *213:B 2.56694e-05
6 *213:A *233:B1 0.00010096
7 *213:A *47:16 0
8 *213:A *48:10 4.01768e-05
9 *233:A1 *233:A2 3.18676e-05
10 *41:8 *48:10 0
11 *206:B *213:A 0.000103981
12 *206:B *41:8 7.83659e-05
13 *211:B1 *233:A1 2.89016e-05
14 *37:12 *213:A 5.66471e-05
*RES
1 *206:Y *41:8 14.8357 
2 *41:8 *213:A 18.6393 
3 *41:8 *233:A1 15.9786 
*END

*D_NET *42 0.00138238
*CONN
*I *209:B1 I *D sky130_fd_sc_hd__a21o_1
*I *208:C I *D sky130_fd_sc_hd__and3_1
*I *207:X O *D sky130_fd_sc_hd__a21bo_1
*CAP
1 *209:B1 6.46811e-05
2 *208:C 8.17084e-05
3 *207:X 0.000331061
4 *42:10 0.00047745
5 *208:C *43:10 9.90431e-05
6 *209:B1 *43:10 0.000128154
7 *206:A *42:10 0
8 *206:C *42:10 3.5707e-05
9 *207:A2 *42:10 3.18676e-05
10 *209:A2 *208:C 1.32261e-05
11 *209:A2 *209:B1 5.26091e-05
12 *209:A2 *42:10 3.2006e-05
13 *39:14 *42:10 3.48705e-05
*RES
1 *207:X *42:10 19.8357 
2 *42:10 *208:C 15.425 
3 *42:10 *209:B1 15.7464 
*END

*D_NET *43 0.00331432
*CONN
*I *230:B2 I *D sky130_fd_sc_hd__a221o_1
*I *215:B1 I *D sky130_fd_sc_hd__a21oi_1
*I *210:A_N I *D sky130_fd_sc_hd__and2b_1
*I *208:X O *D sky130_fd_sc_hd__and3_1
*CAP
1 *230:B2 0.000650838
2 *215:B1 0.000149932
3 *210:A_N 6.18993e-05
4 *208:X 0.000191753
5 *43:23 0.000969013
6 *43:10 0.000421895
7 *210:A_N *44:6 0.00010096
8 *215:B1 *225:A 9.81027e-05
9 *215:B1 *230:A1 8.90199e-05
10 *215:B1 *48:32 5.23142e-05
11 *230:B2 *224:A 0
12 *230:B2 *225:A 0
13 *230:B2 *225:B 8.90314e-05
14 *230:B2 *230:A1 8.53409e-05
15 *230:B2 *230:B1 0.000127026
16 *43:23 *215:A1 0
17 *208:C *43:10 9.90431e-05
18 *209:B1 *43:10 0.000128154
*RES
1 *208:X *43:10 17.1036 
2 *43:10 *210:A_N 15.1571 
3 *43:10 *43:23 7.35714 
4 *43:23 *215:B1 12.7107 
5 *43:23 *230:B2 28.1437 
*END

*D_NET *44 0.000611792
*CONN
*I *210:B I *D sky130_fd_sc_hd__and2b_1
*I *215:A1 I *D sky130_fd_sc_hd__a21oi_1
*I *209:X O *D sky130_fd_sc_hd__a21o_1
*CAP
1 *210:B 0
2 *215:A1 0.000131649
3 *209:X 0.000123767
4 *44:6 0.000255416
5 *215:A1 *48:32 0
6 *210:A_N *44:6 0.00010096
7 *43:23 *215:A1 0
*RES
1 *209:X *44:6 11.4786 
2 *44:6 *215:A1 20.55 
3 *44:6 *210:B 9.3 
*END

*D_NET *45 0.000271723
*CONN
*I *214:A I *D sky130_fd_sc_hd__xor2_1
*I *210:X O *D sky130_fd_sc_hd__and2b_1
*CAP
1 *214:A 0.000135861
2 *210:X 0.000135861
*RES
1 *210:X *214:A 20.7964 
*END

*D_NET *46 0.000669822
*CONN
*I *233:A2 I *D sky130_fd_sc_hd__a21oi_1
*I *213:B I *D sky130_fd_sc_hd__and3_1
*I *211:X O *D sky130_fd_sc_hd__a21o_1
*CAP
1 *233:A2 6.61073e-05
2 *213:B 0.000136112
3 *211:X 0
4 *46:4 0.000202219
5 *213:B *48:10 0.000184441
6 *211:B1 *233:A2 2.34059e-05
7 *213:A *213:B 2.56694e-05
8 *233:A1 *233:A2 3.18676e-05
*RES
1 *211:X *46:4 9.3 
2 *46:4 *213:B 20.6929 
3 *46:4 *233:A2 10.8714 
*END

*D_NET *47 0.0052768
*CONN
*I *213:C I *D sky130_fd_sc_hd__and3_1
*I *233:B1 I *D sky130_fd_sc_hd__a21oi_1
*I *212:X O *D sky130_fd_sc_hd__a31o_1
*CAP
1 *213:C 0
2 *233:B1 0.000371302
3 *212:X 0.00105182
4 *47:16 0.00142312
5 *233:B1 *234:B 5.83233e-05
6 *233:B1 *48:10 0.000221453
7 *47:16 *187:B 0.000225982
8 *47:16 *194:B 0.000247216
9 *47:16 *203:A 9.57064e-05
10 *47:16 *48:10 2.67986e-05
11 *47:16 *76:8 0.000183726
12 *196:A1_N *47:16 0.000152831
13 *205:A3 *47:16 0.00040381
14 *212:B1 *47:16 0
15 *213:A *233:B1 0.00010096
16 *213:A *47:16 0
17 *28:27 *47:16 8.54181e-05
18 *29:6 *47:16 0.000605682
19 *31:10 *47:16 2.26403e-05
20 *37:12 *233:B1 0
*RES
1 *212:X *47:16 42.0589 
2 *47:16 *233:B1 25.0054 
3 *47:16 *213:C 9.3 
*END

*D_NET *48 0.0043903
*CONN
*I *230:A1 I *D sky130_fd_sc_hd__a221o_1
*I *215:A2 I *D sky130_fd_sc_hd__a21oi_1
*I *214:B I *D sky130_fd_sc_hd__xor2_1
*I *234:A I *D sky130_fd_sc_hd__nor2_1
*I *213:X O *D sky130_fd_sc_hd__and3_1
*CAP
1 *230:A1 0.00076703
2 *215:A2 3.82418e-05
3 *214:B 0
4 *234:A 0
5 *213:X 0.000295936
6 *48:32 0.00107575
7 *48:19 0.00054628
8 *48:10 0.000571735
9 *230:A1 *224:A 1.59373e-05
10 *230:A1 *224:B 2.36643e-05
11 *230:A1 *54:8 2.95726e-05
12 *230:A1 *56:16 0.000157026
13 *48:10 *234:B 9.12446e-05
14 *48:19 *245:A 7.83366e-05
15 *48:19 *246:A 0
16 *206:A *48:10 0
17 *206:A *48:19 0
18 *206:B *48:10 0
19 *213:A *48:10 4.01768e-05
20 *213:B *48:10 0.000184441
21 *215:A1 *48:32 0
22 *215:B1 *230:A1 8.90199e-05
23 *215:B1 *48:32 5.23142e-05
24 *230:B2 *230:A1 8.53409e-05
25 *233:B1 *48:10 0.000221453
26 *41:8 *48:10 0
27 *47:16 *48:10 2.67986e-05
*RES
1 *213:X *48:10 21.175 
2 *48:10 *234:A 13.8 
3 *48:10 *48:19 5.28571 
4 *48:19 *214:B 13.8 
5 *48:19 *48:32 9.03571 
6 *48:32 *215:A2 10.0321 
7 *48:32 *230:A1 31.6571 
*END

*D_NET *49 0.000416826
*CONN
*I *225:A I *D sky130_fd_sc_hd__xnor2_1
*I *215:Y O *D sky130_fd_sc_hd__a21oi_1
*CAP
1 *225:A 0.000159362
2 *215:Y 0.000159362
3 *215:B1 *225:A 9.81027e-05
4 *230:B2 *225:A 0
*RES
1 *215:Y *225:A 30.1625 
*END

*D_NET *50 0.00327711
*CONN
*I *217:A_N I *D sky130_fd_sc_hd__and3b_1
*I *219:A_N I *D sky130_fd_sc_hd__and4bb_1
*I *232:B1 I *D sky130_fd_sc_hd__a211o_1
*I *216:X O *D sky130_fd_sc_hd__and4_1
*CAP
1 *217:A_N 0.000164861
2 *219:A_N 0
3 *232:B1 0.000273248
4 *216:X 0.000154251
5 *50:21 0.000226683
6 *50:6 0.000489322
7 *217:A_N *217:B 0.000112377
8 *217:A_N *217:C 2.89669e-05
9 *217:A_N *75:12 0.000149489
10 *232:B1 *219:D 4.29471e-05
11 *232:B1 *231:A 5.52302e-05
12 *232:B1 *231:B 2.89114e-05
13 *232:B1 *232:C1 7.83366e-05
14 *232:B1 *59:10 0
15 *232:B1 *60:10 0.000342495
16 *232:B1 *62:12 0.000150625
17 *232:B1 *63:10 6.07328e-05
18 *50:6 *217:B 5.33005e-05
19 *50:6 *75:12 9.60939e-05
20 *50:6 *75:16 9.41642e-05
21 *50:6 *79:90 7.03393e-05
22 *50:21 *217:B 0.000357048
23 *50:21 *75:12 0.000247689
*RES
1 *216:X *50:6 12.3 
2 *50:6 *232:B1 25.9429 
3 *50:6 *50:21 3.41071 
4 *50:21 *219:A_N 9.3 
5 *50:21 *217:A_N 21.9607 
*END

*D_NET *51 0.000954542
*CONN
*I *220:A I *D sky130_fd_sc_hd__xor2_2
*I *217:X O *D sky130_fd_sc_hd__and3b_1
*CAP
1 *220:A 0.000306708
2 *217:X 0.000306708
3 *220:A *217:C 5.71472e-05
4 *220:A *220:B 0
5 *220:A *52:10 0
6 *220:A *75:12 0.000274288
7 *220:A *79:99 0
8 *238:A *220:A 9.69119e-06
*RES
1 *217:X *220:A 33.475 
*END

*D_NET *52 0.000814484
*CONN
*I *220:B I *D sky130_fd_sc_hd__xor2_2
*I *219:B_N I *D sky130_fd_sc_hd__and4bb_1
*I *218:Y O *D sky130_fd_sc_hd__xnor2_1
*CAP
1 *220:B 0.00027266
2 *219:B_N 0
3 *218:Y 0.000125937
4 *52:10 0.000398597
5 *220:B *60:10 0
6 *52:10 *60:10 0