*SPEF "ieee 1481-1999"
*DESIGN "mult4_SarsaNStepsRuido_e9_SARSA_RUIDO_e9_SARSA_RUIDO_e9_SarsaNStepsRuido_e9"
*DATE "11:57:25 Wednesday September 17, 2025"
*VENDOR "The OpenROAD Project"
*PROGRAM "OpenROAD"
*VERSION "edf00dff99f6c40d67a30c0e22a8191c5d2ed9d6"
*DESIGN_FLOW "NAME_SCOPE LOCAL" "PIN_CAP NONE"
*DIVIDER /
*DELIMITER :
*BUS_DELIMITER []
*T_UNIT 1 NS
*C_UNIT 1 PF
*R_UNIT 1 OHM
*L_UNIT 1 HENRY

*NAME_MAP
*1 A[0]
*2 A[1]
*3 A[2]
*4 A[3]
*5 B[0]
*6 B[1]
*7 B[2]
*8 B[3]
*9 net16
*10 P[1]
*11 P[2]
*12 P[3]
*13 P[4]
*14 P[5]
*15 P[6]
*16 P[7]
*19 _000_
*20 _001_
*21 _002_
*22 _003_
*23 _004_
*24 _005_
*25 _006_
*26 _007_
*27 _008_
*28 _009_
*29 _010_
*30 _011_
*31 _012_
*32 _013_
*33 _014_
*34 _015_
*35 _016_
*36 _017_
*37 _018_
*38 _019_
*39 _020_
*40 _021_
*41 _022_
*42 _023_
*43 _024_
*44 _025_
*45 _026_
*46 _027_
*47 _028_
*48 _029_
*49 _030_
*50 _031_
*51 _032_
*52 _033_
*53 _034_
*54 _035_
*55 _036_
*56 _037_
*57 _038_
*58 _039_
*59 _040_
*60 _041_
*61 _042_
*62 _043_
*63 _044_
*64 _045_
*65 _046_
*66 _047_
*67 _048_
*68 net1
*69 net10
*70 net11
*71 net12
*72 net13
*73 net14
*74 net15
*75 net2
*76 net3
*77 net4
*78 net5
*79 net6
*80 net7
*81 net8
*82 net9
*83 FILLER_0_13
*84 FILLER_0_22
*85 FILLER_0_29
*86 FILLER_0_35
*87 FILLER_0_51
*88 FILLER_0_55
*89 FILLER_0_57
*90 FILLER_0_69
*91 FILLER_0_7
*92 FILLER_1_15
*93 FILLER_1_29
*94 FILLER_1_3
*95 FILLER_1_41
*96 FILLER_1_64
*97 FILLER_1_76
*98 FILLER_2_13
*99 FILLER_2_25
*100 FILLER_2_29
*101 FILLER_2_33
*102 FILLER_2_39
*103 FILLER_2_48
*104 FILLER_2_60
*105 FILLER_2_72
*106 FILLER_2_80
*107 FILLER_3_13
*108 FILLER_3_28
*109 FILLER_3_37
*110 FILLER_3_45
*111 FILLER_3_49
*112 FILLER_3_57
*113 FILLER_3_72
*114 FILLER_3_80
*115 FILLER_3_9
*116 FILLER_4_14
*117 FILLER_4_18
*118 FILLER_4_26
*119 FILLER_4_29
*120 FILLER_4_3
*121 FILLER_4_37
*122 FILLER_4_53
*123 FILLER_4_65
*124 FILLER_4_69
*125 FILLER_4_75
*126 FILLER_5_18
*127 FILLER_5_25
*128 FILLER_5_37
*129 FILLER_5_49
*130 FILLER_5_55
*131 FILLER_5_57
*132 FILLER_5_65
*133 FILLER_5_71
*134 FILLER_6_39
*135 FILLER_6_52
*136 FILLER_6_65
*137 FILLER_6_76
*138 FILLER_7_17
*139 FILLER_7_29
*140 FILLER_7_41
*141 FILLER_7_53
*142 FILLER_7_57
*143 FILLER_7_66
*144 FILLER_7_78
*145 FILLER_8_24
*146 FILLER_8_3
*147 FILLER_8_38
*148 FILLER_8_54
*149 FILLER_8_7
*150 FILLER_8_70
*151 FILLER_8_78
*152 FILLER_9_16
*153 FILLER_9_29
*154 FILLER_9_36
*155 FILLER_9_42
*156 FILLER_9_54
*157 FILLER_9_57
*158 FILLER_9_69
*159 FILLER_9_7
*160 FILLER_9_73
*161 PHY_EDGE_ROW_0_Left_10
*162 PHY_EDGE_ROW_0_Right_0
*163 PHY_EDGE_ROW_1_Left_11
*164 PHY_EDGE_ROW_1_Right_1
*165 PHY_EDGE_ROW_2_Left_12
*166 PHY_EDGE_ROW_2_Right_2
*167 PHY_EDGE_ROW_3_Left_13
*168 PHY_EDGE_ROW_3_Right_3
*169 PHY_EDGE_ROW_4_Left_14
*170 PHY_EDGE_ROW_4_Right_4
*171 PHY_EDGE_ROW_5_Left_15
*172 PHY_EDGE_ROW_5_Right_5
*173 PHY_EDGE_ROW_6_Left_16
*174 PHY_EDGE_ROW_6_Right_6
*175 PHY_EDGE_ROW_7_Left_17
*176 PHY_EDGE_ROW_7_Right_7
*177 PHY_EDGE_ROW_8_Left_18
*178 PHY_EDGE_ROW_8_Right_8
*179 PHY_EDGE_ROW_9_Left_19
*180 PHY_EDGE_ROW_9_Right_9
*181 TAP_TAPCELL_ROW_0_20
*182 TAP_TAPCELL_ROW_0_21
*183 TAP_TAPCELL_ROW_1_22
*184 TAP_TAPCELL_ROW_2_23
*185 TAP_TAPCELL_ROW_3_24
*186 TAP_TAPCELL_ROW_4_25
*187 TAP_TAPCELL_ROW_5_26
*188 TAP_TAPCELL_ROW_6_27
*189 TAP_TAPCELL_ROW_7_28
*190 TAP_TAPCELL_ROW_8_29
*191 TAP_TAPCELL_ROW_9_30
*192 TAP_TAPCELL_ROW_9_31
*193 _049_
*194 _050_
*195 _051_
*196 _052_
*197 _053_
*198 _054_
*199 _055_
*200 _056_
*201 _057_
*202 _058_
*203 _059_
*204 _060_
*205 _061_
*206 _062_
*207 _063_
*208 _064_
*209 _065_
*210 _066_
*211 _067_
*212 _068_
*213 _069_
*214 _070_
*215 _071_
*216 _072_
*217 _073_
*218 _074_
*219 _075_
*220 _076_
*221 _077_
*222 _078_
*223 _079_
*224 _080_
*225 _081_
*226 _082_
*227 _083_
*228 _084_
*229 _085_
*230 _086_
*231 _087_
*232 _088_
*233 _089_
*234 _090_
*235 _091_
*236 _092_
*237 _093_
*238 _094_
*239 _095_
*240 _096_
*241 _097_
*242 _098_
*243 _099_
*244 _100_
*245 _101_
*246 _102_
*247 _103_
*248 _104_
*249 input1
*250 input2
*251 input3
*252 input4
*253 input5
*254 input6
*255 input7
*256 input8
*257 mult4_SarsaNStepsRuido_e9_SARSA_RUIDO_e9_SARSA_RUIDO_e9_SarsaNStepsRuido_e9_16
*258 output10
*259 output11
*260 output12
*261 output13
*262 output14
*263 output15
*264 output9

*PORTS
A[0] I
A[1] I
A[2] I
A[3] I
B[0] I
B[1] I
B[2] I
B[3] I
P[0] O
P[1] O
P[2] O
P[3] O
P[4] O
P[5] O
P[6] O
P[7] O

*D_NET *1 0.000631656
*CONN
*P A[0] I
*I *249:A I *D sky130_fd_sc_hd__dlymetal6s2s_1
*CAP
1 A[0] 0.000288805
2 *249:A 0.000288805
3 *249:A *2:17 2.61329e-05
4 *249:A *3:17 2.79122e-05
*RES
1 A[0] *249:A 49.8062 
*END

*D_NET *2 0.000927238
*CONN
*P A[1] I
*I *250:A I *D sky130_fd_sc_hd__clkbuf_2
*CAP
1 A[1] 0.000450552
2 *250:A 0
3 *2:17 0.000450552
4 *2:17 *75:8 0
5 *249:A *2:17 2.61329e-05
*RES
1 A[1] *2:17 29.7477 
2 *2:17 *250:A 23 
*END

*D_NET *3 0.00131471
*CONN
*P A[2] I
*I *251:A I *D sky130_fd_sc_hd__clkbuf_2
*CAP
1 A[2] 0.000562341
2 *251:A 0
3 *3:17 0.000562341
4 *3:17 *209:B1 0
5 *3:17 *226:B1 0.00010018
6 *3:17 *252:A 0
7 *3:17 *7:17 2.12457e-05
8 *3:17 *49:10 4.06849e-05
9 *3:17 *80:10 0
10 *3:17 *80:12 0
11 *249:A *3:17 2.79122e-05
*RES
1 A[2] *3:17 31.6099 
2 *3:17 *251:A 23 
*END

*D_NET *4 0.000574451
*CONN
*P A[3] I
*I *252:A I *D sky130_fd_sc_hd__dlymetal6s2s_1
*CAP
1 A[3] 0.000250129
2 *252:A 0.000250129
3 *252:A P[7] 0
4 *252:A *7:17 2.79122e-05
5 *252:A *8:17 2.12457e-05
6 *252:A *77:10 2.50347e-05
7 *3:17 *252:A 0
*RES
1 A[3] *252:A 47.7832 
*END

*D_NET *5 0.000960598
*CONN
*P B[0] I
*I *253:A I *D sky130_fd_sc_hd__clkbuf_2
*CAP
1 B[0] 0.00045325
2 *253:A 0.00045325
3 *253:A P[1] 0
4 *253:A *254:A 0
5 *253:A *79:8 5.40971e-05
*RES
1 B[0] *253:A 47.4457 
*END

*D_NET *6 0.0009395
*CONN
*P B[1] I
*I *254:A I *D sky130_fd_sc_hd__dlymetal6s2s_1
*CAP
1 B[1] 0.000442244
2 *254:A 0.000442244
3 *254:A *79:8 5.50106e-05
4 *253:A *254:A 0
*RES
1 B[1] *254:A 47.3214 
*END

*D_NET *7 0.000684707
*CONN
*P B[2] I
*I *255:A I *D sky130_fd_sc_hd__dlymetal6s2s_1
*CAP
1 B[2] 0.000317774
2 *255:A 0
3 *7:17 0.000317774
4 *7:17 *77:10 0
5 *252:A *7:17 2.79122e-05
6 *3:17 *7:17 2.12457e-05
*RES
1 B[2] *7:17 27.5105 
2 *7:17 *255:A 23 
*END

*D_NET *8 0.000678043
*CONN
*P B[3] I
*I *256:A I *D sky130_fd_sc_hd__clkbuf_2
*CAP
1 B[3] 0.000312775
2 *256:A 0
3 *8:17 0.000312775
4 *8:17 P[7] 3.12475e-05
5 *252:A *8:17 2.12457e-05
*RES
1 B[3] *8:17 27.2827 
2 *8:17 *256:A 23 
*END

*D_NET *9 0.000777682
*CONN
*P P[0] O
*I *257:LO O *D sky130_fd_sc_hd__conb_1
*CAP
1 P[0] 0.000345153
2 *257:LO 0.000345153
3 P[0] P[5] 8.73764e-05
4 P[0] *72:8 0
*RES
1 *257:LO P[0] 48.4788 
*END

*D_NET *10 0.00102712
*CONN
*P P[1] O
*I *264:X O *D sky130_fd_sc_hd__buf_2
*CAP
1 P[1] 0.000481213
2 *264:X 0.000481213
3 P[1] *264:A 2.93845e-05
4 P[1] *79:8 3.53115e-05
5 *253:A P[1] 0
*RES
1 *264:X P[1] 47.57 
*END

*D_NET *11 0.000527382
*CONN
*P P[2] O
*I *258:X O *D sky130_fd_sc_hd__buf_2
*CAP
1 P[2] 0.000263691
2 *258:X 0.000263691
*RES
1 *258:X P[2] 47.1648 
*END

*D_NET *12 0.000609303
*CONN
*P P[3] O
*I *259:X O *D sky130_fd_sc_hd__buf_2
*CAP
1 P[3] 0.000249935
2 *259:X 0.000249935
3 P[3] P[4] 8.73764e-05
4 P[3] *67:10 2.20561e-05
*RES
1 *259:X P[3] 47.8691 
*END

*D_NET *13 0.000516158
*CONN
*P P[4] O
*I *260:X O *D sky130_fd_sc_hd__buf_2
*CAP
1 P[4] 0.000214391
2 *260:X 0.000214391
3 P[4] P[5] 0
4 P[4] *46:23 0
5 P[3] P[4] 8.73764e-05
*RES
1 *260:X P[4] 47.1648 
*END

*D_NET *14 0.000680502
*CONN
*P P[5] O
*I *261:X O *D sky130_fd_sc_hd__buf_2
*CAP
1 P[5] 0.000296563
2 *261:X 0.000296563
3 P[5] *72:8 0
4 P[0] P[5] 8.73764e-05
5 P[4] P[5] 0
*RES
1 *261:X P[5] 48.5734 
*END

*D_NET *15 0.00100375
*CONN
*P P[6] O
*I *262:X O *D sky130_fd_sc_hd__buf_2
*CAP
1 P[6] 0.000501876
2 *262:X 0.000501876
*RES
1 *262:X P[6] 48.9786 
*END

*D_NET *16 0.000709427
*CONN
*P P[7] O
*I *263:X O *D sky130_fd_sc_hd__buf_2
*CAP
1 P[7] 0.000308258
2 *263:X 0.000308258
3 P[7] *74:10 6.16635e-05
4 *252:A P[7] 0
5 *8:17 P[7] 3.12475e-05
*RES
1 *263:X P[7] 48.5734 
*END

*D_NET *19 0.00131282
*CONN
*I *199:B1_N I *D sky130_fd_sc_hd__a21boi_1
*I *195:B1 I *D sky130_fd_sc_hd__o211a_1
*I *193:Y O *D sky130_fd_sc_hd__nand3_1
*CAP
1 *199:B1_N 7.2905e-05
2 *195:B1 0
3 *193:Y 0.000185465
4 *19:12 0.000132294
5 *19:6 0.000390664
6 *199:B1_N *194:A1 0
7 *199:B1_N *194:B1 0
8 *199:B1_N *198:D 0
9 *199:B1_N *199:A1 1.32314e-05
10 *199:B1_N *68:16 2.4754e-05
11 *19:6 *193:B 0.00010018
12 *19:6 *68:16 8.48502e-06
13 *19:6 *78:16 0.000215671
14 *19:12 *20:8 2.95125e-05
15 *19:12 *78:16 0.000139657
16 *19:12 *79:25 0
*RES
1 *193:Y *19:6 26.9564 
2 *19:6 *19:12 32.61 
3 *19:12 *195:B1 23 
4 *19:6 *199:B1_N 25.2371 
*END

*D_NET *20 0.000311714
*CONN
*I *195:C1 I *D sky130_fd_sc_hd__o211a_1
*I *194:X O *D sky130_fd_sc_hd__a21o_1
*CAP
1 *195:C1 0
2 *194:X 8.29435e-05
3 *20:8 8.29435e-05
4 *20:8 *75:8 0
5 *20:8 *78:16 0.000116314
6 *19:12 *20:8 2.95125e-05
*RES
1 *194:X *20:8 40.2579 
2 *20:8 *195:C1 38 
*END

*D_NET *21 0.00207412
*CONN
*I *204:A I *D sky130_fd_sc_hd__xnor2_1
*I *206:C I *D sky130_fd_sc_hd__and3_1
*I *196:Y O *D sky130_fd_sc_hd__nand2_1
*CAP
1 *204:A 0
2 *206:C 0
3 *196:Y 0.000123112
4 *21:27 0.000449797
5 *21:14 0.000256124
6 *21:6 0.000829033
7 *21:6 *35:10 1.32289e-05
8 *21:6 *78:66 3.7122e-06
9 *21:14 *206:B 8.91468e-07
10 *21:14 *39:10 0.000139647
11 *21:14 *45:8 0.000212702
12 *21:14 *78:72 2.22183e-05
13 *21:27 *26:10 0
14 *21:27 *35:10 2.36485e-05
15 *21:27 *45:8 0
*RES
1 *196:Y *21:6 24.5743 
2 *21:6 *21:14 36.0071 
3 *21:14 *206:C 23 
4 *21:6 *21:27 36.3386 
5 *21:27 *204:A 23 
*END

*D_NET *22 0.00224737
*CONN
*I *202:A I *D sky130_fd_sc_hd__nor3_1
*I *200:B1 I *D sky130_fd_sc_hd__o21ai_1
*I *205:C I *D sky130_fd_sc_hd__and3_1
*I *197:Y O *D sky130_fd_sc_hd__nand2_1
*CAP
1 *202:A 6.33776e-05
2 *200:B1 0
3 *205:C 0
4 *197:Y 0.000121946
5 *22:21 0.000627174
6 *22:6 0.000685743
7 *202:A *202:B 8.82386e-05
8 *202:A *202:C 5.79559e-05
9 *202:A *25:8 6.68603e-05
10 *202:A *27:8 2.64616e-05
11 *22:6 *205:A 5.50106e-05
12 *22:6 *33:18 2.36853e-05
13 *22:21 *202:B 7.26343e-05
14 *22:21 *202:C 5.56356e-05
15 *22:21 *211:A 5.56356e-05
16 *22:21 *211:C 7.59733e-05
17 *22:21 *23:21 5.93746e-05
18 *22:21 *29:8 9.30575e-05
19 *22:21 *33:18 1.86088e-05
*RES
1 *197:Y *22:6 24.6571 
2 *22:6 *205:C 23 
3 *22:6 *22:21 39.135 
4 *22:21 *200:B1 23 
5 *22:21 *202:A 25.0507 
*END

*D_NET *23 0.00239531
*CONN
*I *200:A1 I *D sky130_fd_sc_hd__o21ai_1
*I *212:B1 I *D sky130_fd_sc_hd__a21o_1
*I *211:A I *D sky130_fd_sc_hd__and3_1
*I *202:B I *D sky130_fd_sc_hd__nor3_1
*I *198:X O *D sky130_fd_sc_hd__and4_1
*CAP
1 *200:A1 0
2 *212:B1 0.000311913
3 *211:A 1.55776e-05
4 *202:B 0.000193365
5 *198:X 4.48856e-05
6 *23:21 0.0004635
7 *23:8 0.000329373
8 *23:6 4.48856e-05
9 *202:B *202:C 1.71761e-05
10 *202:B *24:6 5.56356e-05
11 *211:A *211:C 5.56356e-05
12 *212:B1 *211:C 0.000141318
13 *212:B1 *212:A2 3.70187e-05
14 *212:B1 *33:28 5.09572e-05
15 *23:6 *198:B 0.000128328
16 *23:6 *24:6 0.000229859
17 *202:A *202:B 8.82386e-05
18 *22:21 *202:B 7.26343e-05
19 *22:21 *211:A 5.56356e-05
20 *22:21 *23:21 5.93746e-05
*RES
1 *198:X *23:6 25.5271 
2 *23:6 *23:8 15 
3 *23:8 *202:B 41.3764 
4 *23:8 *23:21 2.25786 
5 *23:21 *211:A 38.6214 
6 *23:21 *212:B1 43.8207 
7 *23:6 *200:A1 23 
*END

*D_NET *24 0.0015987
*CONN
*I *202:C I *D sky130_fd_sc_hd__nor3_1
*I *200:A2 I *D sky130_fd_sc_hd__o21ai_1
*I *199:Y O *D sky130_fd_sc_hd__a21boi_1
*CAP
1 *202:C 5.92907e-05
2 *200:A2 0
3 *199:Y 0.000281819
4 *24:6 0.00034111
5 *202:C *198:B 4.49877e-05
6 *202:C *25:8 5.79559e-05
7 *24:6 *198:A 1.56665e-05
8 *24:6 *198:B 0.000165724
9 *24:6 *198:D 0.000115705
10 *24:6 *199:A1 0.00010018
11 *202:A *202:C 5.79559e-05
12 *202:B *202:C 1.71761e-05
13 *202:B *24:6 5.56356e-05
14 *22:21 *202:C 5.56356e-05
15 *23:6 *24:6 0.000229859
*RES
1 *199:Y *24:6 30.7679 
2 *24:6 *200:A2 23 
3 *24:6 *202:C 25.0714 
*END

*D_NET *25 0.00134302
*CONN
*I *201:A I *D sky130_fd_sc_hd__inv_2
*I *221:A3 I *D sky130_fd_sc_hd__a31oi_2
*I *200:Y O *D sky130_fd_sc_hd__o21ai_1
*CAP
1 *201:A 0
2 *221:A3 0
3 *200:Y 0.000162284
4 *25:21 0.000299697
5 *25:8 0.000461981
6 *25:8 *198:B 0.000143535
7 *25:8 *27:8 2.82416e-05
8 *25:21 *26:10 0
9 *25:21 *27:8 8.54584e-05
10 *25:21 *78:72 3.70094e-05
11 *202:A *25:8 6.68603e-05
12 *202:C *25:8 5.79559e-05
*RES
1 *200:Y *25:8 26.9771 
2 *25:8 *221:A3 23 
3 *25:8 *25:21 35.8414 
4 *25:21 *201:A 23 
*END

*D_NET *26 0.000662549
*CONN
*I *203:A I *D sky130_fd_sc_hd__nor2_1
*I *201:Y O *D sky130_fd_sc_hd__inv_2
*CAP
1 *203:A 0
2 *201:Y 0.000331275
3 *26:10 0.000331275
4 *21:27 *26:10 0
5 *25:21 *26:10 0
*RES
1 *201:Y *26:10 42.3086 
2 *26:10 *203:A 38 
*END

*D_NET *27 0.00143049
*CONN
*I *203:B I *D sky130_fd_sc_hd__nor2_1
*I *221:B1 I *D sky130_fd_sc_hd__a31oi_2
*I *202:Y O *D sky130_fd_sc_hd__nor3_1
*CAP
1 *203:B 0.000131247
2 *221:B1 0
3 *202:Y 0.000497771
4 *27:8 0.000629018
5 *203:B *204:B 3.22879e-05
6 *202:A *27:8 2.64616e-05
7 *25:8 *27:8 2.82416e-05
8 *25:21 *27:8 8.54584e-05
*RES
1 *202:Y *27:8 30.1879 
2 *27:8 *221:B1 23 
3 *27:8 *203:B 25.9207 
*END

*D_NET *28 0.000231528
*CONN
*I *204:B I *D sky130_fd_sc_hd__xnor2_1
*I *203:Y O *D sky130_fd_sc_hd__nor2_1
*CAP
1 *204:B 9.96202e-05
2 *203:Y 9.96202e-05
3 *203:B *204:B 3.22879e-05
*RES
1 *203:Y *204:B 48.0507 
*END

*D_NET *29 0.00386486
*CONN
*I *207:A I *D sky130_fd_sc_hd__nand2_1
*I *208:A I *D sky130_fd_sc_hd__xnor2_1
*I *205:X O *D sky130_fd_sc_hd__and3_1
*CAP
1 *207:A 0.000100976
2 *208:A 0
3 *205:X 0.000212911
4 *29:14 0.00075863
5 *29:8 0.000870565
6 *207:A *208:B 0.000237213
7 *207:A *231:A 0
8 *207:A *32:10 7.69576e-05
9 *207:A *55:10 0.000101762
10 *29:8 *211:B 0.00025557
11 *29:8 *211:C 0.000117695
12 *29:8 *33:18 0.000274078
13 *29:8 *35:10 9.58714e-05
14 *29:8 *78:66 5.56356e-05
15 *29:14 *229:A 5.94125e-05
16 *29:14 *54:8 2.86209e-05
17 *29:14 *55:10 6.12208e-05
18 *29:14 *78:84 0.000191148
19 *29:14 *78:93 0.000191157
20 *29:14 *79:62 8.23816e-05
21 *22:21 *29:8 9.30575e-05
*RES
1 *205:X *29:8 45.7679 
2 *29:8 *29:14 27.76 
3 *29:14 *208:A 23 
4 *29:14 *207:A 27.3707 
*END

*D_NET *30 0.00129953
*CONN
*I *207:B I *D sky130_fd_sc_hd__nand2_1
*I *208:B I *D sky130_fd_sc_hd__xnor2_1
*I *206:X O *D sky130_fd_sc_hd__and3_1
*CAP
1 *207:B 0
2 *208:B 0.000172994
3 *206:X 0.000333011
4 *30:12 0.000172994
5 *30:10 0.000333011
6 *208:B *218:A 0
7 *208:B *231:A 0
8 *208:B *32:10 4.6595e-05
9 *30:10 *41:10 0
10 *30:10 *45:12 3.7122e-06
11 *207:A *208:B 0.000237213
*RES
1 *206:X *30:10 43.3443 
2 *30:10 *30:12 15 
3 *30:12 *208:B 27.35 
4 *30:12 *207:B 23 
*END

*D_NET *31 0.00143472
*CONN
*I *233:A I *D sky130_fd_sc_hd__xnor2_1
*I *237:A1 I *D sky130_fd_sc_hd__a21bo_1
*I *207:Y O *D sky130_fd_sc_hd__nand2_1
*CAP
1 *233:A 0
2 *237:A1 9.09686e-05
3 *207:Y 0.000274434
4 *31:12 9.09686e-05
5 *31:10 0.000274434
6 *237:A1 *233:B 9.84851e-05
7 *237:A1 *42:22 0.000144494
8 *237:A1 *58:8 0.000313181
9 *31:10 *233:B 1.86869e-05
10 *31:10 *236:A 0
11 *31:10 *32:10 3.22879e-05
12 *31:10 *43:10 0
13 *31:10 *55:10 9.67823e-05
*RES
1 *207:Y *31:10 43.3443 
2 *31:10 *31:12 15 
3 *31:12 *237:A1 26.48 
4 *31:12 *233:A 23 
*END

*D_NET *32 0.0010865
*CONN
*I *219:A I *D sky130_fd_sc_hd__xnor2_1
*I *218:A I *D sky130_fd_sc_hd__or2_1
*I *208:Y O *D sky130_fd_sc_hd__xnor2_1
*CAP
1 *219:A 0
2 *218:A 0.000217254
3 *208:Y 0.000183107
4 *32:10 0.000400361
5 *218:A *218:B 0.000103647
6 *218:A *223:A 2.62931e-05
7 *32:10 *218:B 0
8 *207:A *32:10 7.69576e-05
9 *208:B *218:A 0
10 *208:B *32:10 4.6595e-05
11 *31:10 *32:10 3.22879e-05
*RES
1 *208:Y *32:10 27.4743 
2 *32:10 *218:A 26.9771 
3 *32:10 *219:A 23 
*END

*D_NET *33 0.00391874
*CONN
*I *211:B I *D sky130_fd_sc_hd__and3_1
*I *212:A1 I *D sky130_fd_sc_hd__a21o_1
*I *209:Y O *D sky130_fd_sc_hd__o211ai_1
*CAP
1 *211:B 0.000206851
2 *212:A1 0
3 *209:Y 4.11681e-05
4 *33:28 0.00017837
5 *33:18 0.000815663
6 *33:8 0.000471611
7 *33:8 *209:C1 8.85189e-05
8 *33:8 *81:37 8.85189e-05
9 *33:18 *205:A 1.5769e-05
10 *33:18 *68:8 0.000571488
11 *33:18 *81:37 0.00048624
12 *33:18 *81:44 0.000168693
13 *33:28 *210:A2 0
14 *33:28 *211:C 8.4047e-05
15 *33:28 *212:A2 5.24393e-05
16 *33:28 *34:8 2.64616e-05
17 *33:28 *81:52 0
18 *212:B1 *33:28 5.09572e-05
19 *22:6 *33:18 2.36853e-05
20 *22:21 *33:18 1.86088e-05
21 *29:8 *211:B 0.00025557
22 *29:8 *33:18 0.000274078
*RES
1 *209:Y *33:8 39.2014 
2 *33:8 *33:18 27.7186 
3 *33:18 *33:28 33.5007 
4 *33:28 *212:A1 23 
5 *33:18 *211:B 26.0036 
*END

*D_NET *34 0.00142763
*CONN
*I *212:A2 I *D sky130_fd_sc_hd__a21o_1
*I *211:C I *D sky130_fd_sc_hd__and3_1
*I *210:X O *D sky130_fd_sc_hd__a22o_1
*CAP
1 *212:A2 4.79035e-05
2 *211:C 0.000205161
3 *210:X 0.000165455
4 *34:8 0.000418519
5 *211:C *229:B 0
6 *212:A2 *78:84 0
7 *211:A *211:C 5.56356e-05
8 *212:B1 *211:C 0.000141318
9 *212:B1 *212:A2 3.70187e-05
10 *22:21 *211:C 7.59733e-05
11 *29:8 *211:C 0.000117695
12 *33:28 *211:C 8.4047e-05
13 *33:28 *212:A2 5.24393e-05
14 *33:28 *34:8 2.64616e-05
*RES
1 *210:X *34:8 40.0507 
2 *34:8 *211:C 43.51 
3 *34:8 *212:A2 39.2014 
*END

*D_NET *35 0.00320242
*CONN
*I *213:A_N I *D sky130_fd_sc_hd__and2b_1
*I *217:B1 I *D sky130_fd_sc_hd__a21oi_1
*I *211:X O *D sky130_fd_sc_hd__and3_1
*CAP
1 *213:A_N 0.00038505
2 *217:B1 0
3 *211:X 0.00075366
4 *35:12 0.00038505
5 *35:10 0.00075366
6 *213:A_N *213:B 3.70363e-05
7 *213:A_N *220:A 0.00013635
8 *213:A_N *220:B 0.000310647
9 *35:10 *41:10 8.72173e-05
10 *35:10 *45:8 5.68527e-05
11 *35:10 *78:66 0.000164152
12 *21:6 *35:10 1.32289e-05
13 *21:27 *35:10 2.36485e-05
14 *29:8 *35:10 9.58714e-05
*RES
1 *211:X *35:10 48.8543 
2 *35:10 *35:12 15 
3 *35:12 *217:B1 23 
4 *35:12 *213:A_N 31.41 
*END

*D_NET *36 0.00278615
*CONN
*I *213:B I *D sky130_fd_sc_hd__and2b_1
*I *217:A1 I *D sky130_fd_sc_hd__a21oi_1
*I *212:X O *D sky130_fd_sc_hd__a21o_1
*CAP
1 *213:B 0.000332065
2 *217:A1 4.66711e-05
3 *212:X 0.000616778
4 *36:6 0.000995514
5 *213:B *220:A 0.000143655
6 *213:B *220:B 0.00016818
7 *213:B *41:10 5.50106e-05
8 *213:B *44:10 5.50049e-05
9 *217:A1 *220:B 2.28308e-05
10 *217:A1 *40:10 3.91386e-05
11 *36:6 *216:A 0.00014405
12 *36:6 *220:B 1.14876e-05
13 *36:6 *40:10 9.91798e-05
14 *36:6 *77:46 1.95443e-05
15 *213:A_N *213:B 3.70363e-05
*RES
1 *212:X *36:6 31.2443 
2 *36:6 *217:A1 24.2014 
3 *36:6 *213:B 30.4571 
*END

*D_NET *37 0.000380761
*CONN
*I *220:A I *D sky130_fd_sc_hd__xnor2_1
*I *213:X O *D sky130_fd_sc_hd__and2b_1
*CAP
1 *220:A 3.08088e-05
2 *213:X 3.08088e-05
3 *220:A *220:B 3.91386e-05
4 *213:A_N *220:A 0.00013635
5 *213:B *220:A 0.000143655
*RES
1 *213:X *220:A 48.0714 
*END

*D_NET *38 0.000543191
*CONN
*I *216:A I *D sky130_fd_sc_hd__nor2_1
*I *214:Y O *D sky130_fd_sc_hd__a22oi_1
*CAP
1 *216:A 0.000122862
2 *214:Y 0.000122862
3 *216:A *214:A2 8.2674e-05
4 *216:A *40:10 5.90675e-06
5 *216:A *77:46 2.93431e-05
6 *216:A *79:77 3.5493e-05
7 *36:6 *216:A 0.00014405
*RES
1 *214:Y *216:A 49.5007 
*END

*D_NET *39 0.000629129
*CONN
*I *216:B I *D sky130_fd_sc_hd__nor2_1
*I *215:X O *D sky130_fd_sc_hd__o211a_1
*CAP
1 *216:B 2.53983e-05
2 *215:X 0.000160288
3 *39:10 0.000185686
4 *216:B *40:10 5.67058e-05
5 *39:10 *206:A 3.22879e-05
6 *39:10 *206:B 3.70071e-06
7 *39:10 *79:77 2.5415e-05
8 *21:14 *39:10 0.000139647
*RES
1 *215:X *39:10 41.0036 
2 *39:10 *216:B 38.6214 
*END

*D_NET *40 0.00140588
*CONN
*I *220:B I *D sky130_fd_sc_hd__xnor2_1
*I *217:A2 I *D sky130_fd_sc_hd__a21oi_1
*I *216:Y O *D sky130_fd_sc_hd__nor2_1
*CAP
1 *220:B 0.000202165
2 *217:A2 0
3 *216:Y 0.000110934
4 *40:10 0.000313099
5 *220:B *41:10 2.64616e-05
6 *213:A_N *220:B 0.000310647
7 *213:B *220:B 0.00016818
8 *216:A *40:10 5.90675e-06
9 *216:B *40:10 5.67058e-05
10 *217:A1 *220:B 2.28308e-05
11 *217:A1 *40:10 3.91386e-05
12 *220:A *220:B 3.91386e-05
13 *36:6 *220:B 1.14876e-05
14 *36:6 *40:10 9.91798e-05
*RES
1 *216:Y *40:10 26.045 
2 *40:10 *217:A2 23 
3 *40:10 *220:B 29.5457 
*END

*D_NET *41 0.00164844
*CONN
*I *218:B I *D sky130_fd_sc_hd__or2_1
*I *219:B I *D sky130_fd_sc_hd__xnor2_1
*I *217:Y O *D sky130_fd_sc_hd__a21oi_1
*CAP
1 *218:B 7.01277e-05
2 *219:B 0
3 *217:Y 0.000547262
4 *41:12 7.01277e-05
5 *41:10 0.000547262
6 *218:B *223:A 0.000116573
7 *218:B *43:10 2.4754e-05
8 *41:10 *44:10 0
9 *41:10 *44:21 0
10 *41:10 *44:32 0
11 *41:10 *45:8 0
12 *213:B *41:10 5.50106e-05
13 *218:A *218:B 0.000103647
14 *220:B *41:10 2.64616e-05
15 *30:10 *41:10 0
16 *32:10 *218:B 0
17 *35:10 *41:10 8.72173e-05
*RES
1 *217:Y *41:10 47.9221 
2 *41:10 *41:12 15 
3 *41:12 *219:B 23 
4 *41:12 *218:B 25.5479 
*END

*D_NET *42 0.00261791
*CONN
*I *234:B1 I *D sky130_fd_sc_hd__o31a_1
*I *237:A2 I *D sky130_fd_sc_hd__a21bo_1
*I *218:X O *D sky130_fd_sc_hd__or2_1
*CAP
1 *234:B1 0
2 *237:A2 0
3 *218:X 0.000232196
4 *42:22 0.000635126
5 *42:12 0.000635126
6 *42:10 0.000232196
7 *42:10 *223:A 0.000143191
8 *42:10 *236:A 9.48381e-06
9 *42:10 *43:10 4.3407e-05
10 *42:10 *44:32 0.000164282
11 *42:22 *233:B 7.37503e-05
12 *42:22 *234:A1 0.000140259
13 *42:22 *55:10 0.000139713
14 *42:22 *58:8 2.46906e-05
15 *237:A1 *42:22 0.000144494
*RES
1 *218:X *42:10 42.3086 
2 *42:10 *42:12 15 
3 *42:12 *42:22 42.3043 
4 *42:22 *237:A2 23 
5 *42:12 *234:B1 23 
*END

*D_NET *43 0.0023095
*CONN
*I *223:A I *D sky130_fd_sc_hd__xnor2_1
*I *236:A I *D sky130_fd_sc_hd__or4b_1
*I *234:A1 I *D sky130_fd_sc_hd__o31a_1
*I *219:Y O *D sky130_fd_sc_hd__xnor2_1
*CAP
1 *223:A 0.000364753
2 *236:A 0.000173039
3 *234:A1 0.000174864
4 *219:Y 0
5 *43:10 0.000484715
6 *43:4 0.000501564
7 *234:A1 *234:A2 5.3304e-05
8 *234:A1 *234:A3 5.3304e-05
9 *236:A *236:B 0
10 *218:A *223:A 2.62931e-05
11 *218:B *223:A 0.000116573
12 *218:B *43:10 2.4754e-05
13 *31:10 *236:A 0
14 *31:10 *43:10 0
15 *42:10 *223:A 0.000143191
16 *42:10 *236:A 9.48381e-06
17 *42:10 *43:10 4.3407e-05
18 *42:22 *234:A1 0.000140259
*RES
1 *219:Y *43:4 23 
2 *43:4 *43:10 17.5271 
3 *43:10 *234:A1 41.5007 
4 *43:10 *236:A 40.9621 
5 *43:4 *223:A 30.83 
*END

*D_NET *44 0.00402893
*CONN
*I *236:B I *D sky130_fd_sc_hd__or4b_1
*I *234:A2 I *D sky130_fd_sc_hd__o31a_1
*I *222:A I *D sky130_fd_sc_hd__nor2_1
*I *247:A I *D sky130_fd_sc_hd__and2_1
*I *220:Y O *D sky130_fd_sc_hd__xnor2_1
*CAP
1 *236:B 0.000152886
2 *234:A2 3.80122e-05
3 *222:A 0.000149625
4 *247:A 0.000189323
5 *220:Y 0.000318894
6 *44:32 0.000413718
7 *44:21 0.00047664
8 *44:10 0.000612412
9 *222:A *222:B 0.000272383
10 *236:B *236:C 0.000219882
11 *236:B *72:8 0
12 *247:A *247:B 0.00017814
13 *247:A *45:12 5.3304e-05
14 *44:10 *45:16 3.47781e-05
15 *44:21 *45:16 0.000197479
16 *44:21 *45:29 2.55642e-05
17 *44:32 *236:C 4.92689e-05
18 *44:32 *45:29 0.00037403
19 *213:B *44:10 5.50049e-05
20 *234:A1 *234:A2 5.3304e-05
21 *236:A *236:B 0
22 *41:10 *44:10 0
23 *41:10 *44:21 0
24 *41:10 *44:32 0
25 *42:10 *44:32 0.000164282
*RES
1 *220:Y *44:10 42.64 
2 *44:10 *247:A 42.4329 
3 *44:10 *44:21 2.96214 
4 *44:21 *222:A 41.48 
5 *44:21 *44:32 5.77929 
6 *44:32 *234:A2 38.6214 
7 *44:32 *236:B 41.6664 
*END

*D_NET *45 0.00582002
*CONN
*I *247:B I *D sky130_fd_sc_hd__and2_1
*I *236:C I *D sky130_fd_sc_hd__or4b_1
*I *234:A3 I *D sky130_fd_sc_hd__o31a_1
*I *222:B I *D sky130_fd_sc_hd__nor2_1
*I *221:Y O *D sky130_fd_sc_hd__a31oi_2
*CAP
1 *247:B 0.000381005
2 *236:C 0.000271482
3 *234:A3 4.09526e-05
4 *222:B 0.000175068
5 *221:Y 0.000408792
6 *45:29 0.000578402
7 *45:16 0.00057408
8 *45:12 0.000804501
9 *45:8 0.000699243
10 *222:B *248:A 7.53384e-06
11 *222:B *259:A 0
12 *222:B *46:6 1.76557e-05
13 *236:C *235:A 6.17437e-06
14 *236:C *56:8 4.56101e-05
15 *236:C *57:10 7.81176e-05
16 *45:8 *78:72 0
17 *45:8 *79:77 0
18 *45:29 *46:23 0
19 *222:A *222:B 0.000272383
20 *234:A1 *234:A3 5.3304e-05
21 *236:B *236:C 0.000219882
22 *247:A *247:B 0.00017814
23 *247:A *45:12 5.3304e-05
24 *21:14 *45:8 0.000212702
25 *21:27 *45:8 0
26 *30:10 *45:12 3.7122e-06
27 *35:10 *45:8 5.68527e-05
28 *41:10 *45:8 0
29 *44:10 *45:16 3.47781e-05
30 *44:21 *45:16 0.000197479
31 *44:21 *45:29 2.55642e-05
32 *44:32 *236:C 4.92689e-05
33 *44:32 *45:29 0.00037403
*RES
1 *221:Y *45:8 45.54 
2 *45:8 *45:12 19.9093 
3 *45:12 *45:16 17.9621 
4 *45:16 *222:B 42.4536 
5 *45:16 *45:29 5.42714 
6 *45:29 *234:A3 38.6214 
7 *45:29 *236:C 43.2407 
8 *45:12 *247:B 30.0429 
*END

*D_NET *46 0.000701062
*CONN
*I *223:B I *D sky130_fd_sc_hd__xnor2_1
*I *248:A I *D sky130_fd_sc_hd__nor2_1
*I *222:Y O *D sky130_fd_sc_hd__nor2_1
*CAP
1 *223:B 0
2 *248:A 0.000154492
3 *222:Y 3.97285e-05
4 *46:23 0.000141715
5 *46:6 0.000335935
6 *248:A *259:A 4.00259e-06
7 P[4] *46:23 0
8 *222:B *248:A 7.53384e-06
9 *222:B *46:6 1.76557e-05
10 *45:29 *46:23 0
*RES
1 *222:Y *46:6 23.6214 
2 *46:6 *248:A 26.045 
3 *46:6 *46:23 32.2579 
4 *46:23 *223:B 23 
*END

*D_NET *47 0.00162918
*CONN
*I *227:A I *D sky130_fd_sc_hd__or3_1
*I *239:S I *D sky130_fd_sc_hd__mux2_1
*I *246:A2 I *D sky130_fd_sc_hd__a211o_1
*I *224:X O *D sky130_fd_sc_hd__and3_1
*CAP
1 *227:A 4.38585e-05
2 *239:S 9.46841e-05
3 *246:A2 0
4 *224:X 0.00013876
5 *47:18 0.000342328
6 *47:12 0.000291503
7 *47:10 0.00013876
8 *227:A *77:21 9.84851e-05
9 *239:S *63:10 7.90939e-05
10 *239:S *74:10 5.61311e-05
11 *47:10 *49:10 0.000141879
12 *47:10 *77:10 0
13 *47:10 *77:23 0
14 *47:10 *80:69 5.50049e-05
15 *47:18 *238:B 0
16 *47:18 *63:10 4.21594e-06
17 *47:18 *77:10 4.21594e-06
18 *47:18 *77:21 0.000140259
*RES
1 *224:X *47:10 40.8793 
2 *47:10 *47:12 15 
3 *47:12 *47:18 19.5364 
4 *47:18 *246:A2 38 
5 *47:18 *239:S 40.9621 
6 *47:12 *227:A 24.0979 
*END

*D_NET *48 0.000338205
*CONN
*I *227:B I *D sky130_fd_sc_hd__or3_1
*I *225:Y O *D sky130_fd_sc_hd__nor2_1
*CAP
1 *227:B 0.000114097
2 *225:Y 0.000114097
3 *227:B *50:10 5.50049e-05
4 *227:B *77:21 5.50049e-05
*RES
1 *225:Y *227:B 47.5743 
*END

*D_NET *49 0.000974252
*CONN
*I *227:C I *D sky130_fd_sc_hd__or3_1
*I *226:Y O *D sky130_fd_sc_hd__a21oi_1
*CAP
1 *227:C 0
2 *226:Y 0.000315939
3 *49:10 0.000315939
4 *49:10 *226:B1 2.65879e-05
5 *49:10 *76:13 4.04598e-06
6 *49:10 *76:19 4.08641e-05
7 *49:10 *77:10 0
8 *49:10 *77:23 4.31263e-05
9 *49:10 *77:29 4.51871e-05
10 *49:10 *80:10 0
11 *3:17 *49:10 4.06849e-05
12 *47:10 *49:10 0.000141879
*RES
1 *226:Y *49:10 44.7736 
2 *49:10 *227:C 38 
*END

*D_NET *50 0.00165573
*CONN
*I *232:A I *D sky130_fd_sc_hd__xor2_1
*I *231:A I *D sky130_fd_sc_hd__nor2_1
*I *227:X O *D sky130_fd_sc_hd__or3_1
*CAP
1 *232:A 0
2 *231:A 0.000189754
3 *227:X 0.000408865
4 *50:10 0.000598618
5 *231:A *231:B 0.000219868
6 *231:A *55:10 2.32706e-05
7 *50:10 *231:B 5.67058e-05
8 *50:10 *53:8 7.42621e-05
9 *50:10 *80:84 2.93845e-05
10 *207:A *231:A 0
11 *208:B *231:A 0
12 *227:B *50:10 5.50049e-05
*RES
1 *227:X *50:10 30.8093 
2 *50:10 *231:A 27.4743 
3 *50:10 *232:A 23 
*END

*D_NET *51 0.00142027
*CONN
*I *240:A1 I *D sky130_fd_sc_hd__a21oi_1
*I *230:A I *D sky130_fd_sc_hd__xnor2_1
*I *228:X O *D sky130_fd_sc_hd__and4_1
*CAP
1 *240:A1 0
2 *230:A 0
3 *228:X 0.00019061
4 *51:18 7.42541e-05
5 *51:12 0.000153287
6 *51:8 0.000269644
7 *51:8 *229:B 8.85189e-05
8 *51:8 *52:10 0
9 *51:8 *62:8 6.48049e-05
10 *51:8 *81:25 0.000191659
11 *51:12 *240:B1 9.67842e-05
12 *51:18 *230:B 0.000184174
13 *51:18 *52:10 1.01436e-05
14 *51:18 *62:8 9.63918e-05
*RES
1 *228:X *51:8 43.075 
2 *51:8 *51:12 16.5743 
3 *51:12 *51:18 32.61 
4 *51:18 *230:A 23 
5 *51:12 *240:A1 23 
*END

*D_NET *52 0.000824392
*CONN
*I *230:B I *D sky130_fd_sc_hd__xnor2_1
*I *240:A2 I *D sky130_fd_sc_hd__a21oi_1
*I *229:X O *D sky130_fd_sc_hd__and4_1
*CAP
1 *230:B 0.000118173
2 *240:A2 0
3 *229:X 0.000153671
4 *52:10 0.000271844
5 *230:B *62:8 1.02387e-05
6 *52:10 *229:A 5.67058e-05
7 *52:10 *62:8 1.94418e-05
8 *51:8 *52:10 0
9 *51:18 *230:B 0.000184174
10 *51:18 *52:10 1.01436e-05
*RES
1 *229:X *52:10 40.8793 
2 *52:10 *240:A2 38 
3 *52:10 *230:B 40.9621 
*END

*D_NET *53 0.000754749
*CONN
*I *231:B I *D sky130_fd_sc_hd__nor2_1
*I *232:B I *D sky130_fd_sc_hd__xor2_1
*I *230:Y O *D sky130_fd_sc_hd__xnor2_1
*CAP
1 *231:B 0.000105068
2 *232:B 0
3 *230:Y 8.65142e-05
4 *53:8 0.000191582
5 *231:B *55:10 2.07484e-05
6 *231:A *231:B 0.000219868
7 *50:10 *231:B 5.67058e-05
8 *50:10 *53:8 7.42621e-05
*RES
1 *230:Y *53:8 25.0714 
2 *53:8 *232:B 23 
3 *53:8 *231:B 26.6457 
*END

*D_NET *54 0.00130333
*CONN
*I *240:B1 I *D sky130_fd_sc_hd__a21oi_1
*I *231:Y O *D sky130_fd_sc_hd__nor2_1
*CAP
1 *240:B1 0.00050461
2 *231:Y 8.43537e-05
3 *54:8 0.000588964
4 *29:14 *54:8 2.86209e-05
5 *51:12 *240:B1 9.67842e-05
*RES
1 *231:Y *54:8 39.5536 
2 *54:8 *240:B1 45.7679 
*END

*D_NET *55 0.00187952
*CONN
*I *233:B I *D sky130_fd_sc_hd__xnor2_1
*I *237:B1_N I *D sky130_fd_sc_hd__a21bo_1
*I *232:X O *D sky130_fd_sc_hd__xor2_1
*CAP
1 *233:B 9.7449e-05
2 *237:B1_N 0
3 *232:X 0.000525102
4 *55:10 0.000622551
5 *207:A *55:10 0.000101762
6 *231:A *55:10 2.32706e-05
7 *231:B *55:10 2.07484e-05
8 *237:A1 *233:B 9.84851e-05
9 *29:14 *55:10 6.12208e-05
10 *31:10 *233:B 1.86869e-05
11 *31:10 *55:10 9.67823e-05
12 *42:22 *233:B 7.37503e-05
13 *42:22 *55:10 0.000139713
*RES
1 *232:X *55:10 47.4043 
2 *55:10 *237:B1_N 38 
3 *55:10 *233:B 40.2993 
*END

*D_NET *56 0.00109426
*CONN
*I *235:A I *D sky130_fd_sc_hd__xnor2_1
*I *236:D_N I *D sky130_fd_sc_hd__or4b_1
*I *233:Y O *D sky130_fd_sc_hd__xnor2_1
*CAP
1 *235:A 0.000126565
2 *236:D_N 0
3 *233:Y 0.000344582
4 *56:8 0.000471148
5 *56:8 *58:8 0.00010018
6 *236:C *235:A 6.17437e-06
7 *236:C *56:8 4.56101e-05
*RES
1 *233:Y *56:8 27.93 
2 *56:8 *236:D_N 23 
3 *56:8 *235:A 25.0714 
*END

*D_NET *57 0.00043589
*CONN
*I *235:B I *D sky130_fd_sc_hd__xnor2_1
*I *234:X O *D sky130_fd_sc_hd__o31a_1
*CAP
1 *235:B 0
2 *234:X 0.000178886
3 *57:10 0.000178886
4 *236:C *57:10 7.81176e-05
*RES
1 *234:X *57:10 40.8793 
2 *57:10 *235:B 38 
*END

*D_NET *58 0.00210917
*CONN
*I *244:A I *D sky130_fd_sc_hd__and3_1
*I *243:A1 I *D sky130_fd_sc_hd__a21oi_1
*I *236:X O *D sky130_fd_sc_hd__or4b_1
*CAP
1 *244:A 0
2 *243:A1 0.000207217
3 *236:X 0.000512097
4 *58:8 0.000719314
5 *243:A1 *244:C 0.000175175
6 *243:A1 *66:14 2.21283e-05
7 *58:8 *59:6 1.32939e-05
8 *58:8 *66:14 2.18926e-05
9 *237:A1 *58:8 0.000313181
10 *42:22 *58:8 2.46906e-05
11 *56:8 *58:8 0.00010018
*RES
1 *236:X *58:8 32.9221 
2 *58:8 *243:A1 26.5007 
3 *58:8 *244:A 23 
*END
