*SPEF "ieee 1481-1999"
*DESIGN "SarsaNada_e10"
*DATE "18:17:07 Tuesday September 16, 2025"
*VENDOR "The OpenROAD Project"
*PROGRAM "OpenROAD"
*VERSION "edf00dff99f6c40d67a30c0e22a8191c5d2ed9d6"
*DESIGN_FLOW "NAME_SCOPE LOCAL" "PIN_CAP NONE"
*DIVIDER /
*DELIMITER :
*BUS_DELIMITER []
*T_UNIT 1 NS
*C_UNIT 1 PF
*R_UNIT 1 OHM
*L_UNIT 1 HENRY

*NAME_MAP
*1 A[0]
*2 A[1]
*3 B[0]
*4 B[1]
*5 P[0]
*6 P[1]
*7 P[2]
*8 P[3]
*11 _0_
*12 _1_
*13 net1
*14 net2
*15 net3
*16 net4
*17 net5
*18 net6
*19 net7
*20 net8
*21 FILLER_0_15
*22 FILLER_0_27
*23 FILLER_0_29
*24 FILLER_0_3
*25 FILLER_0_41
*26 FILLER_0_53
*27 FILLER_0_57
*28 FILLER_0_69
*29 FILLER_1_15
*30 FILLER_1_27
*31 FILLER_1_3
*32 FILLER_1_39
*33 FILLER_1_51
*34 FILLER_1_55
*35 FILLER_1_57
*36 FILLER_1_69
*37 FILLER_2_15
*38 FILLER_2_27
*39 FILLER_2_29
*40 FILLER_2_3
*41 FILLER_2_41
*42 FILLER_2_53
*43 FILLER_2_65
*44 FILLER_2_77
*45 FILLER_3_15
*46 FILLER_3_27
*47 FILLER_3_3
*48 FILLER_3_39
*49 FILLER_3_51
*50 FILLER_3_55
*51 FILLER_3_57
*52 FILLER_3_69
*53 FILLER_4_18
*54 FILLER_4_26
*55 FILLER_4_29
*56 FILLER_4_46
*57 FILLER_4_58
*58 FILLER_4_6
*59 FILLER_4_70
*60 FILLER_4_76
*61 FILLER_5_16
*62 FILLER_5_37
*63 FILLER_5_44
*64 FILLER_5_57
*65 FILLER_5_69
*66 FILLER_5_7
*67 FILLER_5_77
*68 FILLER_6_18
*69 FILLER_6_26
*70 FILLER_6_29
*71 FILLER_6_41
*72 FILLER_6_45
*73 FILLER_6_57
*74 FILLER_6_6
*75 FILLER_6_69
*76 FILLER_7_18
*77 FILLER_7_30
*78 FILLER_7_42
*79 FILLER_7_54
*80 FILLER_7_57
*81 FILLER_7_6
*82 FILLER_7_69
*83 FILLER_8_15
*84 FILLER_8_27
*85 FILLER_8_29
*86 FILLER_8_3
*87 FILLER_8_41
*88 FILLER_8_53
*89 FILLER_8_65
*90 FILLER_8_77
*91 FILLER_9_15
*92 FILLER_9_27
*93 FILLER_9_29
*94 FILLER_9_3
*95 FILLER_9_41
*96 FILLER_9_53
*97 FILLER_9_57
*98 FILLER_9_69
*99 PHY_EDGE_ROW_0_Left_10
*100 PHY_EDGE_ROW_0_Right_0
*101 PHY_EDGE_ROW_1_Left_11
*102 PHY_EDGE_ROW_1_Right_1
*103 PHY_EDGE_ROW_2_Left_12
*104 PHY_EDGE_ROW_2_Right_2
*105 PHY_EDGE_ROW_3_Left_13
*106 PHY_EDGE_ROW_3_Right_3
*107 PHY_EDGE_ROW_4_Left_14
*108 PHY_EDGE_ROW_4_Right_4
*109 PHY_EDGE_ROW_5_Left_15
*110 PHY_EDGE_ROW_5_Right_5
*111 PHY_EDGE_ROW_6_Left_16
*112 PHY_EDGE_ROW_6_Right_6
*113 PHY_EDGE_ROW_7_Left_17
*114 PHY_EDGE_ROW_7_Right_7
*115 PHY_EDGE_ROW_8_Left_18
*116 PHY_EDGE_ROW_8_Right_8
*117 PHY_EDGE_ROW_9_Left_19
*118 PHY_EDGE_ROW_9_Right_9
*119 TAP_TAPCELL_ROW_0_20
*120 TAP_TAPCELL_ROW_0_21
*121 TAP_TAPCELL_ROW_1_22
*122 TAP_TAPCELL_ROW_2_23
*123 TAP_TAPCELL_ROW_3_24
*124 TAP_TAPCELL_ROW_4_25
*125 TAP_TAPCELL_ROW_5_26
*126 TAP_TAPCELL_ROW_6_27
*127 TAP_TAPCELL_ROW_7_28
*128 TAP_TAPCELL_ROW_8_29
*129 TAP_TAPCELL_ROW_9_30
*130 TAP_TAPCELL_ROW_9_31
*131 _2_
*132 _3_
*133 _4_
*134 _5_
*135 _6_
*136 _7_
*137 input1
*138 input2
*139 input3
*140 input4
*141 output5
*142 output6
*143 output7
*144 output8

*PORTS
A[0] I
A[1] I
B[0] I
B[1] I
P[0] O
P[1] O
P[2] O
P[3] O

*D_NET *1 0.000574322
*CONN
*P A[0] I
*I *137:A I *D sky130_fd_sc_hd__buf_1
*CAP
1 A[0] 0.000275863
2 *137:A 0.000275863
3 *137:A *138:A 2.25951e-05
*RES
1 A[0] *137:A 20.4803 
*END

*D_NET *2 0.000536985
*CONN
*P A[1] I
*I *138:A I *D sky130_fd_sc_hd__buf_1
*CAP
1 A[1] 0.000242811
2 *138:A 0.000242811
3 *138:A P[3] 2.87684e-05
4 *137:A *138:A 2.25951e-05
*RES
1 A[1] *138:A 18.73 
*END

*D_NET *3 0.000688268
*CONN
*P B[0] I
*I *139:A I *D sky130_fd_sc_hd__buf_1
*CAP
1 B[0] 0.000329138
2 *139:A 0.000329138
3 *139:A P[3] 2.99915e-05
*RES
1 B[0] *139:A 21.6946 
*END

*D_NET *4 0.00060944
*CONN
*P B[1] I
*I *140:A I *D sky130_fd_sc_hd__buf_1
*CAP
1 B[1] 0.000220272
2 *140:A 0.000220272
3 *140:A P[1] 8.31618e-05
4 *140:A P[2] 8.57347e-05
*RES
1 B[1] *140:A 19.6407 
*END

*D_NET *5 0.00048928
*CONN
*P P[0] O
*I *141:X O *D sky130_fd_sc_hd__buf_2
*CAP
1 P[0] 0.000202616
2 *141:X 0.000202616
3 P[0] P[1] 8.40493e-05
*RES
1 *141:X P[0] 18.1949 
*END

*D_NET *6 0.000506139
*CONN
*P P[1] O
*I *142:X O *D sky130_fd_sc_hd__buf_2
*CAP
1 P[1] 0.000163366
2 *142:X 0.000163366
3 P[1] P[2] 0
4 P[1] *142:A 1.21955e-05
5 P[0] P[1] 8.40493e-05
6 *140:A P[1] 8.31618e-05
*RES
1 *142:X P[1] 18.1949 
*END

*D_NET *7 0.000627103
*CONN
*P P[2] O
*I *143:X O *D sky130_fd_sc_hd__buf_2
*CAP
1 P[2] 0.000270684
2 *143:X 0.000270684
3 P[1] P[2] 0
4 *140:A P[2] 8.57347e-05
*RES
1 *143:X P[2] 19.4092 
*END

*D_NET *8 0.000725588
*CONN
*P P[3] O
*I *144:X O *D sky130_fd_sc_hd__buf_2
*CAP
1 P[3] 0.000333414
2 *144:X 0.000333414
3 *138:A P[3] 2.87684e-05
4 *139:A P[3] 2.99915e-05
*RES
1 *144:X P[3] 20.891 
*END

*D_NET *11 0.00263536
*CONN
*I *135:C I *D sky130_fd_sc_hd__and3_1
*I *134:B I *D sky130_fd_sc_hd__nand2_1
*I *133:A I *D sky130_fd_sc_hd__inv_2
*I *132:Y O *D sky130_fd_sc_hd__nand4_2
*CAP
1 *135:C 4.22247e-05
2 *134:B 0.000149608
3 *133:A 0.000265344
4 *132:Y 0
5 *11:17 0.000676506
6 *11:4 0.000750017
7 *133:A *13:16 5.52302e-05
8 *134:B *14:21 9.83442e-05
9 *135:C *16:8 2.07517e-05
10 *135:C *16:10 4.33899e-05
11 *11:17 *131:A 0.000231277
12 *11:17 *132:A 0.000198552
13 *11:17 *13:16 4.72487e-05
14 *11:17 *16:10 5.68713e-05
*RES
1 *132:Y *11:4 9.3 
2 *11:4 *133:A 13.9607 
3 *11:4 *11:17 7.32143 
4 *11:17 *134:B 20.8893 
5 *11:17 *135:C 9.90714 
*END

*D_NET *12 0.0010985
*CONN
*I *136:C I *D sky130_fd_sc_hd__and3_1
*I *131:Y O *D sky130_fd_sc_hd__nand2_1
*CAP
1 *136:C 0.000358048
2 *131:Y 0.000358048
3 *136:C *135:B 0.000172411
4 *136:C *136:A 0.000148449
5 *136:C *136:B 5.44658e-06
6 *136:C *13:16 5.60962e-05
*RES
1 *131:Y *136:C 33.7071 
*END

*D_NET *13 0.00333515
*CONN
*I *132:D I *D sky130_fd_sc_hd__nand4_2
*I *135:B I *D sky130_fd_sc_hd__and3_1
*I *131:B I *D sky130_fd_sc_hd__nand2_1
*I *137:X O *D sky130_fd_sc_hd__buf_1
*CAP
1 *132:D 0
2 *135:B 8.18566e-05
3 *131:B 2.87699e-05
4 *137:X 0.00090069
5 *13:16 0.000414618
6 *13:10 0.00120468
7 *131:B *132:A 3.50166e-05
8 *135:B *132:A 5.51405e-05
9 *135:B *16:10 2.99132e-05
10 *13:10 *132:C 6.74815e-05
11 *13:16 *131:A 6.42709e-05
12 *13:16 *132:A 0.000115923
13 *13:16 *132:C 5.80706e-06
14 *13:16 *15:12 0
15 *133:A *13:16 5.52302e-05
16 *136:C *135:B 0.000172411
17 *136:C *13:16 5.60962e-05
18 *11:17 *13:16 4.72487e-05
*RES
1 *137:X *13:10 25.8 
2 *13:10 *13:16 10.2857 
3 *13:16 *131:B 10.0321 
4 *13:16 *135:B 11.9071 
5 *13:10 *132:D 13.8 
*END

*D_NET *14 0.00368928
*CONN
*I *136:B I *D sky130_fd_sc_hd__and3_1
*I *134:A I *D sky130_fd_sc_hd__nand2_1
*I *132:C I *D sky130_fd_sc_hd__nand4_2
*I *138:X O *D sky130_fd_sc_hd__buf_1
*CAP
1 *136:B 0.000359685
2 *134:A 2.22847e-05
3 *132:C 0.000107104
4 *138:X 0.000755225
5 *14:21 0.000891059
6 *14:6 0.00137142
7 *132:C *15:12 4.1331e-06
8 *136:B *143:A 1.28935e-06
9 *134:B *14:21 9.83442e-05
10 *136:C *136:B 5.44658e-06
11 *13:10 *132:C 6.74815e-05
12 *13:16 *132:C 5.80706e-06
*RES
1 *138:X *14:6 18.05 
2 *14:6 *132:C 19.9429 
3 *14:6 *14:21 7.94643 
4 *14:21 *134:A 9.72857 
5 *14:21 *136:B 23.55 
*END

*D_NET *15 0.0024658
*CONN
*I *131:A I *D sky130_fd_sc_hd__nand2_1
*I *132:B I *D sky130_fd_sc_hd__nand4_2
*I *139:X O *D sky130_fd_sc_hd__buf_1
*CAP
1 *131:A 6.83496e-05
2 *132:B 0
3 *139:X 0.000976663
4 *15:12 0.00104501
5 *131:A *132:A 7.60962e-05
6 *132:C *15:12 4.1331e-06
7 *11:17 *131:A 0.000231277
8 *13:16 *131:A 6.42709e-05
9 *13:16 *15:12 0
*RES
1 *139:X *15:12 30.2286 
2 *15:12 *132:B 9.3 
3 *15:12 *131:A 12.3357 
*END

*D_NET *16 0.00400039
*CONN
*I *136:A I *D sky130_fd_sc_hd__and3_1
*I *135:A I *D sky130_fd_sc_hd__and3_1
*I *132:A I *D sky130_fd_sc_hd__nand4_2
*I *140:X O *D sky130_fd_sc_hd__buf_1
*CAP
1 *136:A 0.000203994
2 *135:A 0
3 *132:A 7.50129e-05
4 *140:X 0.000561695
5 *16:10 9.47899e-05
6 *16:8 0.000785466
7 *16:8 *142:A 0.00149933
8 *131:A *132:A 7.60962e-05
9 *131:B *132:A 3.50166e-05
10 *135:B *132:A 5.51405e-05
11 *135:B *16:10 2.99132e-05
12 *135:C *16:8 2.07517e-05
13 *135:C *16:10 4.33899e-05
14 *136:C *136:A 0.000148449
15 *11:17 *132:A 0.000198552
16 *11:17 *16:10 5.68713e-05
17 *13:16 *132:A 0.000115923
*RES
1 *140:X *16:8 25.05 
2 *16:8 *16:10 0.946429 
3 *16:10 *132:A 13.175 
4 *16:10 *135:A 9.3 
5 *16:8 *136:A 21.8893 
*END

*D_NET *17 0.00191839
*CONN
*I *141:A I *D sky130_fd_sc_hd__buf_2
*I *134:Y O *D sky130_fd_sc_hd__nand2_1
*CAP
1 *141:A 0.000959193
2 *134:Y 0.000959193
*RES
1 *134:Y *141:A 43.6357 
*END

*D_NET *18 0.00356095
*CONN
*I *142:A I *D sky130_fd_sc_hd__buf_2
*I *135:X O *D sky130_fd_sc_hd__and3_1
*CAP
1 *142:A 0.00102471
2 *135:X 0.00102471
3 P[1] *142:A 1.21955e-05
4 *16:8 *142:A 0.00149933
*RES
1 *135:X *142:A 43.3321 
*END

*D_NET *19 0.00203609
*CONN
*I *143:A I *D sky130_fd_sc_hd__buf_2
*I *136:X O *D sky130_fd_sc_hd__and3_1
*CAP
1 *143:A 0.0010174
2 *136:X 0.0010174
3 *136:B *143:A 1.28935e-06
*RES
1 *136:X *143:A 32.725 
*END

*D_NET *20 0.000405918
*CONN
*I *144:A I *D sky130_fd_sc_hd__buf_2
*I *133:Y O *D sky130_fd_sc_hd__inv_2
*CAP
1 *144:A 0.000202959
2 *133:Y 0.000202959
*RES
1 *133:Y *144:A 22.0107 
*END
