*SPEF "ieee 1481-1999"
*DESIGN "mult8_2bits_1op_e17298"
*DATE "14:52:24 Tuesday September 16, 2025"
*VENDOR "The OpenROAD Project"
*PROGRAM "OpenROAD"
*VERSION "edf00dff99f6c40d67a30c0e22a8191c5d2ed9d6"
*DESIGN_FLOW "NAME_SCOPE LOCAL" "PIN_CAP NONE"
*DIVIDER /
*DELIMITER :
*BUS_DELIMITER []
*T_UNIT 1 NS
*C_UNIT 1 PF
*R_UNIT 1 OHM
*L_UNIT 1 HENRY

*NAME_MAP
*1 A[0]
*2 A[1]
*3 A[2]
*4 A[3]
*5 A[4]
*6 A[5]
*7 A[6]
*8 A[7]
*9 B[0]
*10 B[1]
*11 B[2]
*12 B[3]
*13 B[4]
*14 B[5]
*15 B[6]
*16 B[7]
*17 net47
*18 P[10]
*19 P[11]
*20 P[12]
*21 P[13]
*22 P[14]
*23 P[15]
*24 P[1]
*25 P[2]
*26 P[3]
*27 P[4]
*28 P[5]
*29 P[6]
*30 P[7]
*31 P[8]
*32 P[9]
*35 _000_
*36 _001_
*37 _002_
*38 _003_
*39 _004_
*40 _005_
*41 _006_
*42 _007_
*43 _008_
*44 _009_
*45 _010_
*46 _011_
*47 _012_
*48 _013_
*49 _014_
*50 _015_
*51 _016_
*52 _017_
*53 _018_
*54 _019_
*55 _020_
*56 _021_
*57 _022_
*58 _023_
*59 _024_
*60 _025_
*61 _026_
*62 _027_
*63 _028_
*64 _029_
*65 _030_
*66 _031_
*67 _032_
*68 _033_
*69 _034_
*70 _035_
*71 _036_
*72 _037_
*73 _038_
*74 _039_
*75 _040_
*76 _041_
*77 _042_
*78 _043_
*79 _044_
*80 _045_
*81 _046_
*82 _047_
*83 _048_
*84 _049_
*85 _050_
*86 _051_
*87 _052_
*88 _053_
*89 _054_
*90 _055_
*91 _056_
*92 _057_
*93 _058_
*94 _059_
*95 _060_
*96 _061_
*97 _062_
*98 _063_
*99 _064_
*100 _065_
*101 _066_
*102 _067_
*103 _068_
*104 _069_
*105 _070_
*106 _071_
*107 _072_
*108 _073_
*109 _074_
*110 _075_
*111 _076_
*112 _077_
*113 _078_
*114 _079_
*115 _080_
*116 _081_
*117 _082_
*118 _083_
*119 _084_
*120 _085_
*121 _086_
*122 _087_
*123 _088_
*124 _089_
*125 _090_
*126 _091_
*127 _092_
*128 _093_
*129 _094_
*130 _095_
*131 _096_
*132 _097_
*133 _098_
*134 _099_
*135 _100_
*136 _101_
*137 _102_
*138 _103_
*139 _104_
*140 _105_
*141 _106_
*142 _107_
*143 _108_
*144 _109_
*145 _110_
*146 _111_
*147 _112_
*148 _113_
*149 _114_
*150 _115_
*151 _116_
*152 _117_
*153 _118_
*154 _119_
*155 _120_
*156 _121_
*157 _122_
*158 _123_
*159 _124_
*160 _125_
*161 _126_
*162 _127_
*163 _128_
*164 _129_
*165 _130_
*166 _131_
*167 _132_
*168 _133_
*169 _134_
*170 _135_
*171 _136_
*172 _137_
*173 _138_
*174 _139_
*175 _140_
*176 _141_
*177 _142_
*178 _143_
*179 _144_
*180 _145_
*181 _146_
*182 _147_
*183 _148_
*184 _149_
*185 _150_
*186 _151_
*187 _152_
*188 _153_
*189 _154_
*190 _155_
*191 _156_
*192 _157_
*193 _158_
*194 _159_
*195 _160_
*196 _161_
*197 _162_
*198 _163_
*199 _164_
*200 _165_
*201 _166_
*202 _167_
*203 _168_
*204 _169_
*205 _170_
*206 _171_
*207 _172_
*208 _173_
*209 _174_
*210 _175_
*211 _176_
*212 _177_
*213 _178_
*214 _179_
*215 _180_
*216 _181_
*217 _182_
*218 _183_
*219 _184_
*220 _185_
*221 _186_
*222 _187_
*223 _188_
*224 _189_
*225 _190_
*226 _191_
*227 _192_
*228 _193_
*229 _194_
*230 _195_
*231 _196_
*232 _197_
*233 _198_
*234 _199_
*235 _200_
*236 _201_
*237 _202_
*238 _203_
*239 _204_
*240 _205_
*241 _206_
*242 _207_
*243 _208_
*244 _209_
*245 _210_
*246 _211_
*247 _212_
*248 _213_
*249 _214_
*250 _215_
*251 _216_
*252 _217_
*253 _218_
*254 _219_
*255 _220_
*256 _221_
*257 _222_
*258 _223_
*259 _224_
*260 _225_
*261 _226_
*262 _227_
*263 _228_
*264 _229_
*265 _230_
*266 _231_
*267 _232_
*268 _233_
*269 net1
*270 net10
*271 net11
*272 net12
*273 net13
*274 net14
*275 net15
*276 net16
*277 net17
*278 net18
*279 net19
*280 net2
*281 net20
*282 net21
*283 net22
*284 net23
*285 net24
*286 net25
*287 net26
*288 net27
*289 net28
*290 net29
*291 net3
*292 net30
*293 net31
*294 net32
*295 net34
*296 net35
*297 net36
*298 net37
*299 net38
*300 net39
*301 net4
*302 net40
*303 net41
*304 net42
*305 net43
*306 net44
*307 net45
*308 net46
*309 net48
*310 net49
*311 net5
*312 net50
*313 net51
*314 net52
*315 net53
*316 net54
*317 net55
*318 net56
*319 net57
*320 net58
*321 net59
*322 net6
*323 net60
*324 net61
*325 net62
*326 net63
*327 net64
*328 net65
*329 net66
*330 net67
*331 net68
*332 net69
*333 net7
*334 net70
*335 net71
*336 net72
*337 net8
*338 net9
*339 ANTENNA_1
*340 FILLER_0_109
*341 FILLER_0_113
*342 FILLER_0_125
*343 FILLER_0_132
*344 FILLER_0_141
*345 FILLER_0_15
*346 FILLER_0_153
*347 FILLER_0_163
*348 FILLER_0_167
*349 FILLER_0_169
*350 FILLER_0_175
*351 FILLER_0_182
*352 FILLER_0_188
*353 FILLER_0_221
*354 FILLER_0_225
*355 FILLER_0_237
*356 FILLER_0_249
*357 FILLER_0_253
*358 FILLER_0_265
*359 FILLER_0_27
*360 FILLER_0_277
*361 FILLER_0_281
*362 FILLER_0_29
*363 FILLER_0_293
*364 FILLER_0_3
*365 FILLER_0_301
*366 FILLER_0_307
*367 FILLER_0_309
*368 FILLER_0_321
*369 FILLER_0_333
*370 FILLER_0_337
*371 FILLER_0_349
*372 FILLER_0_361
*373 FILLER_0_365
*374 FILLER_0_377
*375 FILLER_0_389
*376 FILLER_0_393
*377 FILLER_0_405
*378 FILLER_0_41
*379 FILLER_0_53
*380 FILLER_0_57
*381 FILLER_0_69
*382 FILLER_0_76
*383 FILLER_0_85
*384 FILLER_0_97
*385 FILLER_10_109
*386 FILLER_10_121
*387 FILLER_10_133
*388 FILLER_10_139
*389 FILLER_10_141
*390 FILLER_10_15
*391 FILLER_10_153
*392 FILLER_10_165
*393 FILLER_10_173
*394 FILLER_10_191
*395 FILLER_10_195
*396 FILLER_10_197
*397 FILLER_10_208
*398 FILLER_10_212
*399 FILLER_10_232
*400 FILLER_10_240
*401 FILLER_10_253
*402 FILLER_10_265
*403 FILLER_10_27
*404 FILLER_10_277
*405 FILLER_10_289
*406 FILLER_10_29
*407 FILLER_10_3
*408 FILLER_10_301
*409 FILLER_10_307
*410 FILLER_10_309
*411 FILLER_10_321
*412 FILLER_10_333
*413 FILLER_10_345
*414 FILLER_10_357
*415 FILLER_10_363
*416 FILLER_10_365
*417 FILLER_10_377
*418 FILLER_10_389
*419 FILLER_10_401
*420 FILLER_10_41
*421 FILLER_10_53
*422 FILLER_10_65
*423 FILLER_10_77
*424 FILLER_10_83
*425 FILLER_10_85
*426 FILLER_10_97
*427 FILLER_11_105
*428 FILLER_11_111
*429 FILLER_11_113
*430 FILLER_11_125
*431 FILLER_11_137
*432 FILLER_11_149
*433 FILLER_11_15
*434 FILLER_11_169
*435 FILLER_11_192
*436 FILLER_11_203
*437 FILLER_11_207
*438 FILLER_11_219
*439 FILLER_11_223
*440 FILLER_11_225
*441 FILLER_11_237
*442 FILLER_11_241
*443 FILLER_11_256
*444 FILLER_11_268
*445 FILLER_11_27
*446 FILLER_11_281
*447 FILLER_11_293
*448 FILLER_11_3
*449 FILLER_11_305
*450 FILLER_11_317
*451 FILLER_11_329
*452 FILLER_11_335
*453 FILLER_11_337
*454 FILLER_11_349
*455 FILLER_11_361
*456 FILLER_11_373
*457 FILLER_11_385
*458 FILLER_11_39
*459 FILLER_11_391
*460 FILLER_11_393
*461 FILLER_11_405
*462 FILLER_11_51
*463 FILLER_11_55
*464 FILLER_11_57
*465 FILLER_11_69
*466 FILLER_11_81
*467 FILLER_11_93
*468 FILLER_12_109
*469 FILLER_12_121
*470 FILLER_12_133
*471 FILLER_12_139
*472 FILLER_12_141
*473 FILLER_12_15
*474 FILLER_12_153
*475 FILLER_12_177
*476 FILLER_12_189
*477 FILLER_12_195
*478 FILLER_12_197
*479 FILLER_12_215
*480 FILLER_12_223
*481 FILLER_12_230
*482 FILLER_12_241
*483 FILLER_12_249
*484 FILLER_12_253
*485 FILLER_12_265
*486 FILLER_12_27
*487 FILLER_12_277
*488 FILLER_12_289
*489 FILLER_12_29
*490 FILLER_12_3
*491 FILLER_12_301
*492 FILLER_12_307
*493 FILLER_12_309
*494 FILLER_12_321
*495 FILLER_12_333
*496 FILLER_12_345
*497 FILLER_12_357
*498 FILLER_12_363
*499 FILLER_12_365
*500 FILLER_12_377
*501 FILLER_12_389
*502 FILLER_12_401
*503 FILLER_12_41
*504 FILLER_12_53
*505 FILLER_12_65
*506 FILLER_12_77
*507 FILLER_12_83
*508 FILLER_12_85
*509 FILLER_12_97
*510 FILLER_13_105
*511 FILLER_13_111
*512 FILLER_13_113
*513 FILLER_13_125
*514 FILLER_13_137
*515 FILLER_13_149
*516 FILLER_13_15
*517 FILLER_13_161
*518 FILLER_13_167
*519 FILLER_13_169
*520 FILLER_13_181
*521 FILLER_13_193
*522 FILLER_13_205
*523 FILLER_13_217
*524 FILLER_13_223
*525 FILLER_13_228
*526 FILLER_13_240
*527 FILLER_13_248
*528 FILLER_13_264
*529 FILLER_13_27
*530 FILLER_13_276
*531 FILLER_13_281
*532 FILLER_13_293
*533 FILLER_13_3
*534 FILLER_13_305
*535 FILLER_13_317
*536 FILLER_13_329
*537 FILLER_13_335
*538 FILLER_13_337
*539 FILLER_13_349
*540 FILLER_13_361
*541 FILLER_13_373
*542 FILLER_13_385
*543 FILLER_13_39
*544 FILLER_13_391
*545 FILLER_13_393
*546 FILLER_13_405
*547 FILLER_13_51
*548 FILLER_13_55
*549 FILLER_13_57
*550 FILLER_13_69
*551 FILLER_13_81
*552 FILLER_13_93
*553 FILLER_14_109
*554 FILLER_14_121
*555 FILLER_14_133
*556 FILLER_14_139
*557 FILLER_14_141
*558 FILLER_14_15
*559 FILLER_14_153
*560 FILLER_14_165
*561 FILLER_14_176
*562 FILLER_14_188
*563 FILLER_14_197
*564 FILLER_14_209
*565 FILLER_14_221
*566 FILLER_14_233
*567 FILLER_14_245
*568 FILLER_14_251
*569 FILLER_14_253
*570 FILLER_14_27
*571 FILLER_14_274
*572 FILLER_14_286
*573 FILLER_14_29
*574 FILLER_14_298
*575 FILLER_14_3
*576 FILLER_14_306
*577 FILLER_14_309
*578 FILLER_14_321
*579 FILLER_14_333
*580 FILLER_14_345
*581 FILLER_14_357
*582 FILLER_14_363
*583 FILLER_14_365
*584 FILLER_14_377
*585 FILLER_14_389
*586 FILLER_14_401
*587 FILLER_14_41
*588 FILLER_14_53
*589 FILLER_14_65
*590 FILLER_14_77
*591 FILLER_14_83
*592 FILLER_14_85
*593 FILLER_14_97
*594 FILLER_15_105
*595 FILLER_15_111
*596 FILLER_15_113
*597 FILLER_15_122
*598 FILLER_15_134
*599 FILLER_15_146
*600 FILLER_15_15
*601 FILLER_15_158
*602 FILLER_15_166
*603 FILLER_15_169
*604 FILLER_15_183
*605 FILLER_15_195
*606 FILLER_15_207
*607 FILLER_15_219
*608 FILLER_15_223
*609 FILLER_15_225
*610 FILLER_15_237
*611 FILLER_15_249
*612 FILLER_15_261
*613 FILLER_15_27
*614 FILLER_15_273
*615 FILLER_15_279
*616 FILLER_15_281
*617 FILLER_15_293
*618 FILLER_15_3
*619 FILLER_15_305
*620 FILLER_15_317
*621 FILLER_15_329
*622 FILLER_15_335
*623 FILLER_15_337
*624 FILLER_15_349
*625 FILLER_15_361
*626 FILLER_15_373
*627 FILLER_15_385
*628 FILLER_15_39
*629 FILLER_15_391
*630 FILLER_15_393
*631 FILLER_15_405
*632 FILLER_15_51
*633 FILLER_15_55
*634 FILLER_15_57
*635 FILLER_15_69
*636 FILLER_15_81
*637 FILLER_15_93
*638 FILLER_16_109
*639 FILLER_16_129
*640 FILLER_16_137
*641 FILLER_16_146
*642 FILLER_16_15
*643 FILLER_16_185
*644 FILLER_16_193
*645 FILLER_16_197
*646 FILLER_16_212
*647 FILLER_16_220
*648 FILLER_16_242
*649 FILLER_16_250
*650 FILLER_16_253
*651 FILLER_16_265
*652 FILLER_16_27
*653 FILLER_16_277
*654 FILLER_16_289
*655 FILLER_16_29
*656 FILLER_16_3
*657 FILLER_16_301
*658 FILLER_16_307
*659 FILLER_16_309
*660 FILLER_16_321
*661 FILLER_16_333
*662 FILLER_16_345
*663 FILLER_16_357
*664 FILLER_16_363
*665 FILLER_16_365
*666 FILLER_16_377
*667 FILLER_16_389
*668 FILLER_16_401
*669 FILLER_16_41
*670 FILLER_16_53
*671 FILLER_16_65
*672 FILLER_16_77
*673 FILLER_16_83
*674 FILLER_16_85
*675 FILLER_16_97
*676 FILLER_17_105
*677 FILLER_17_111
*678 FILLER_17_113
*679 FILLER_17_128
*680 FILLER_17_140
*681 FILLER_17_15
*682 FILLER_17_152
*683 FILLER_17_164
*684 FILLER_17_169
*685 FILLER_17_181
*686 FILLER_17_193
*687 FILLER_17_205
*688 FILLER_17_211
*689 FILLER_17_217
*690 FILLER_17_223
*691 FILLER_17_225
*692 FILLER_17_230
*693 FILLER_17_242
*694 FILLER_17_254
*695 FILLER_17_262
*696 FILLER_17_267
*697 FILLER_17_27
*698 FILLER_17_279
*699 FILLER_17_281
*700 FILLER_17_293
*701 FILLER_17_3
*702 FILLER_17_305
*703 FILLER_17_317
*704 FILLER_17_329
*705 FILLER_17_335
*706 FILLER_17_337
*707 FILLER_17_349
*708 FILLER_17_361
*709 FILLER_17_373
*710 FILLER_17_385
*711 FILLER_17_39
*712 FILLER_17_391
*713 FILLER_17_393
*714 FILLER_17_405
*715 FILLER_17_51
*716 FILLER_17_55
*717 FILLER_17_57
*718 FILLER_17_69
*719 FILLER_17_81
*720 FILLER_17_93
*721 FILLER_18_109
*722 FILLER_18_118
*723 FILLER_18_130
*724 FILLER_18_138
*725 FILLER_18_141
*726 FILLER_18_15
*727 FILLER_18_153
*728 FILLER_18_180
*729 FILLER_18_192
*730 FILLER_18_197
*731 FILLER_18_209
*732 FILLER_18_221
*733 FILLER_18_233
*734 FILLER_18_245
*735 FILLER_18_251
*736 FILLER_18_253
*737 FILLER_18_27
*738 FILLER_18_287
*739 FILLER_18_29
*740 FILLER_18_299
*741 FILLER_18_3
*742 FILLER_18_307
*743 FILLER_18_309
*744 FILLER_18_321
*745 FILLER_18_333
*746 FILLER_18_345
*747 FILLER_18_357
*748 FILLER_18_363
*749 FILLER_18_365
*750 FILLER_18_377
*751 FILLER_18_389
*752 FILLER_18_401
*753 FILLER_18_41
*754 FILLER_18_53
*755 FILLER_18_65
*756 FILLER_18_77
*757 FILLER_18_83
*758 FILLER_18_85
*759 FILLER_18_97
*760 FILLER_19_105
*761 FILLER_19_111
*762 FILLER_19_113
*763 FILLER_19_138
*764 FILLER_19_15
*765 FILLER_19_150
*766 FILLER_19_162
*767 FILLER_19_190
*768 FILLER_19_202
*769 FILLER_19_214
*770 FILLER_19_222
*771 FILLER_19_225
*772 FILLER_19_237
*773 FILLER_19_249
*774 FILLER_19_261
*775 FILLER_19_27
*776 FILLER_19_273
*777 FILLER_19_279
*778 FILLER_19_281
*779 FILLER_19_293
*780 FILLER_19_3
*781 FILLER_19_305
*782 FILLER_19_317
*783 FILLER_19_329
*784 FILLER_19_335
*785 FILLER_19_337
*786 FILLER_19_349
*787 FILLER_19_361
*788 FILLER_19_373
*789 FILLER_19_385
*790 FILLER_19_39
*791 FILLER_19_391
*792 FILLER_19_393
*793 FILLER_19_405
*794 FILLER_19_51
*795 FILLER_19_55
*796 FILLER_19_57
*797 FILLER_19_69
*798 FILLER_19_81
*799 FILLER_19_93
*800 FILLER_1_105
*801 FILLER_1_111
*802 FILLER_1_113
*803 FILLER_1_125
*804 FILLER_1_137
*805 FILLER_1_149
*806 FILLER_1_15
*807 FILLER_1_161
*808 FILLER_1_167
*809 FILLER_1_169
*810 FILLER_1_173
*811 FILLER_1_179
*812 FILLER_1_191
*813 FILLER_1_203
*814 FILLER_1_211
*815 FILLER_1_219
*816 FILLER_1_223
*817 FILLER_1_225
*818 FILLER_1_237
*819 FILLER_1_249
*820 FILLER_1_261
*821 FILLER_1_27
*822 FILLER_1_273
*823 FILLER_1_279
*824 FILLER_1_281
*825 FILLER_1_293
*826 FILLER_1_3
*827 FILLER_1_305
*828 FILLER_1_317
*829 FILLER_1_329
*830 FILLER_1_335
*831 FILLER_1_337
*832 FILLER_1_349
*833 FILLER_1_361
*834 FILLER_1_373
*835 FILLER_1_385
*836 FILLER_1_39
*837 FILLER_1_391
*838 FILLER_1_393
*839 FILLER_1_405
*840 FILLER_1_51
*841 FILLER_1_55
*842 FILLER_1_57
*843 FILLER_1_69
*844 FILLER_1_81
*845 FILLER_1_93
*846 FILLER_20_109
*847 FILLER_20_121
*848 FILLER_20_133
*849 FILLER_20_139
*850 FILLER_20_141
*851 FILLER_20_15
*852 FILLER_20_153
*853 FILLER_20_165
*854 FILLER_20_179
*855 FILLER_20_187
*856 FILLER_20_191
*857 FILLER_20_195
*858 FILLER_20_197
*859 FILLER_20_209
*860 FILLER_20_221
*861 FILLER_20_233
*862 FILLER_20_245
*863 FILLER_20_251
*864 FILLER_20_253
*865 FILLER_20_261
*866 FILLER_20_27
*867 FILLER_20_279
*868 FILLER_20_288
*869 FILLER_20_29
*870 FILLER_20_3
*871 FILLER_20_300
*872 FILLER_20_309
*873 FILLER_20_321
*874 FILLER_20_333
*875 FILLER_20_345
*876 FILLER_20_357
*877 FILLER_20_363
*878 FILLER_20_365
*879 FILLER_20_377
*880 FILLER_20_389
*881 FILLER_20_401
*882 FILLER_20_41
*883 FILLER_20_53
*884 FILLER_20_65
*885 FILLER_20_77
*886 FILLER_20_83
*887 FILLER_20_85
*888 FILLER_20_97
*889 FILLER_21_113
*890 FILLER_21_125
*891 FILLER_21_144
*892 FILLER_21_15
*893 FILLER_21_156
*894 FILLER_21_169
*895 FILLER_21_180
*896 FILLER_21_184
*897 FILLER_21_196
*898 FILLER_21_208
*899 FILLER_21_214
*900 FILLER_21_222
*901 FILLER_21_225
*902 FILLER_21_229
*903 FILLER_21_240
*904 FILLER_21_252
*905 FILLER_21_260
*906 FILLER_21_269
*907 FILLER_21_27
*908 FILLER_21_277
*909 FILLER_21_3
*910 FILLER_21_307
*911 FILLER_21_319
*912 FILLER_21_331
*913 FILLER_21_335
*914 FILLER_21_337
*915 FILLER_21_349
*916 FILLER_21_361
*917 FILLER_21_373
*918 FILLER_21_385
*919 FILLER_21_39
*920 FILLER_21_391
*921 FILLER_21_393
*922 FILLER_21_401
*923 FILLER_21_51
*924 FILLER_21_55
*925 FILLER_21_57
*926 FILLER_21_69
*927 FILLER_21_81
*928 FILLER_21_93
*929 FILLER_22_109
*930 FILLER_22_121
*931 FILLER_22_133
*932 FILLER_22_139
*933 FILLER_22_141
*934 FILLER_22_15
*935 FILLER_22_153
*936 FILLER_22_165
*937 FILLER_22_177
*938 FILLER_22_185
*939 FILLER_22_192
*940 FILLER_22_197
*941 FILLER_22_209
*942 FILLER_22_221
*943 FILLER_22_233
*944 FILLER_22_245
*945 FILLER_22_251
*946 FILLER_22_253
*947 FILLER_22_257
*948 FILLER_22_27
*949 FILLER_22_278
*950 FILLER_22_29
*951 FILLER_22_290
*952 FILLER_22_3
*953 FILLER_22_302
*954 FILLER_22_309
*955 FILLER_22_321
*956 FILLER_22_333
*957 FILLER_22_345
*958 FILLER_22_357
*959 FILLER_22_363
*960 FILLER_22_365
*961 FILLER_22_377
*962 FILLER_22_389
*963 FILLER_22_401
*964 FILLER_22_41
*965 FILLER_22_53
*966 FILLER_22_65
*967 FILLER_22_77
*968 FILLER_22_83
*969 FILLER_22_85
*970 FILLER_22_97
*971 FILLER_23_105
*972 FILLER_23_126
*973 FILLER_23_138
*974 FILLER_23_15
*975 FILLER_23_150
*976 FILLER_23_162
*977 FILLER_23_169
*978 FILLER_23_181
*979 FILLER_23_193
*980 FILLER_23_205
*981 FILLER_23_217
*982 FILLER_23_223
*983 FILLER_23_225
*984 FILLER_23_237
*985 FILLER_23_249
*986 FILLER_23_261
*987 FILLER_23_268
*988 FILLER_23_27
*989 FILLER_23_281
*990 FILLER_23_293
*991 FILLER_23_3
*992 FILLER_23_305
*993 FILLER_23_317
*994 FILLER_23_329
*995 FILLER_23_335
*996 FILLER_23_337
*997 FILLER_23_349
*998 FILLER_23_361
*999 FILLER_23_373
*1000 FILLER_23_385
*1001 FILLER_23_39
*1002 FILLER_23_391
*1003 FILLER_23_393
*1004 FILLER_23_405
*1005 FILLER_23_51
*1006 FILLER_23_55
*1007 FILLER_23_57
*1008 FILLER_23_69
*1009 FILLER_23_81
*1010 FILLER_23_93
*1011 FILLER_24_109
*1012 FILLER_24_117
*1013 FILLER_24_147
*1014 FILLER_24_15
*1015 FILLER_24_155
*1016 FILLER_24_170
*1017 FILLER_24_182
*1018 FILLER_24_194
*1019 FILLER_24_197
*1020 FILLER_24_209
*1021 FILLER_24_221
*1022 FILLER_24_233
*1023 FILLER_24_245
*1024 FILLER_24_251
*1025 FILLER_24_253
*1026 FILLER_24_265
*1027 FILLER_24_27
*1028 FILLER_24_277
*1029 FILLER_24_289
*1030 FILLER_24_29
*1031 FILLER_24_3
*1032 FILLER_24_301
*1033 FILLER_24_307
*1034 FILLER_24_309
*1035 FILLER_24_321
*1036 FILLER_24_333
*1037 FILLER_24_345
*1038 FILLER_24_357
*1039 FILLER_24_363
*1040 FILLER_24_365
*1041 FILLER_24_377
*1042 FILLER_24_389
*1043 FILLER_24_397
*1044 FILLER_24_41
*1045 FILLER_24_53
*1046 FILLER_24_65
*1047 FILLER_24_77
*1048 FILLER_24_83
*1049 FILLER_24_85
*1050 FILLER_24_97
*1051 FILLER_25_105
*1052 FILLER_25_111
*1053 FILLER_25_113
*1054 FILLER_25_125
*1055 FILLER_25_129
*1056 FILLER_25_143
*1057 FILLER_25_15
*1058 FILLER_25_155
*1059 FILLER_25_167
*1060 FILLER_25_169
*1061 FILLER_25_181
*1062 FILLER_25_193
*1063 FILLER_25_205
*1064 FILLER_25_217
*1065 FILLER_25_223
*1066 FILLER_25_225
*1067 FILLER_25_231
*1068 FILLER_25_237
*1069 FILLER_25_249
*1070 FILLER_25_261
*1071 FILLER_25_27
*1072 FILLER_25_273
*1073 FILLER_25_279
*1074 FILLER_25_281
*1075 FILLER_25_293
*1076 FILLER_25_3
*1077 FILLER_25_305
*1078 FILLER_25_317
*1079 FILLER_25_329
*1080 FILLER_25_335
*1081 FILLER_25_337
*1082 FILLER_25_349
*1083 FILLER_25_361
*1084 FILLER_25_373
*1085 FILLER_25_385
*1086 FILLER_25_39
*1087 FILLER_25_391
*1088 FILLER_25_393
*1089 FILLER_25_405
*1090 FILLER_25_51
*1091 FILLER_25_55
*1092 FILLER_25_57
*1093 FILLER_25_69
*1094 FILLER_25_81
*1095 FILLER_25_93
*1096 FILLER_26_109
*1097 FILLER_26_121
*1098 FILLER_26_133
*1099 FILLER_26_139
*1100 FILLER_26_141
*1101 FILLER_26_15
*1102 FILLER_26_153
*1103 FILLER_26_165
*1104 FILLER_26_177
*1105 FILLER_26_189
*1106 FILLER_26_195
*1107 FILLER_26_197
*1108 FILLER_26_209
*1109 FILLER_26_221
*1110 FILLER_26_229
*1111 FILLER_26_240
*1112 FILLER_26_250
*1113 FILLER_26_257
*1114 FILLER_26_269
*1115 FILLER_26_27
*1116 FILLER_26_281
*1117 FILLER_26_29
*1118 FILLER_26_293
*1119 FILLER_26_3
*1120 FILLER_26_300
*1121 FILLER_26_309
*1122 FILLER_26_321
*1123 FILLER_26_333
*1124 FILLER_26_345
*1125 FILLER_26_357
*1126 FILLER_26_363
*1127 FILLER_26_365
*1128 FILLER_26_377
*1129 FILLER_26_389
*1130 FILLER_26_41
*1131 FILLER_26_53
*1132 FILLER_26_65
*1133 FILLER_26_77
*1134 FILLER_26_83
*1135 FILLER_26_85
*1136 FILLER_26_97
*1137 FILLER_27_105
*1138 FILLER_27_117
*1139 FILLER_27_129
*1140 FILLER_27_141
*1141 FILLER_27_15
*1142 FILLER_27_153
*1143 FILLER_27_165
*1144 FILLER_27_169
*1145 FILLER_27_178
*1146 FILLER_27_190
*1147 FILLER_27_202
*1148 FILLER_27_211
*1149 FILLER_27_223
*1150 FILLER_27_225
*1151 FILLER_27_233
*1152 FILLER_27_243
*1153 FILLER_27_255
*1154 FILLER_27_263
*1155 FILLER_27_27
*1156 FILLER_27_275
*1157 FILLER_27_279
*1158 FILLER_27_288
*1159 FILLER_27_292
*1160 FILLER_27_299
*1161 FILLER_27_3
*1162 FILLER_27_309
*1163 FILLER_27_321
*1164 FILLER_27_333
*1165 FILLER_27_337
*1166 FILLER_27_349
*1167 FILLER_27_361
*1168 FILLER_27_373
*1169 FILLER_27_385
*1170 FILLER_27_39
*1171 FILLER_27_391
*1172 FILLER_27_393
*1173 FILLER_27_405
*1174 FILLER_27_51
*1175 FILLER_27_55
*1176 FILLER_27_57
*1177 FILLER_27_69
*1178 FILLER_27_81
*1179 FILLER_27_93
*1180 FILLER_28_109
*1181 FILLER_28_114
*1182 FILLER_28_126
*1183 FILLER_28_138
*1184 FILLER_28_141
*1185 FILLER_28_15
*1186 FILLER_28_153
*1187 FILLER_28_181
*1188 FILLER_28_197
*1189 FILLER_28_215
*1190 FILLER_28_222
*1191 FILLER_28_234
*1192 FILLER_28_246
*1193 FILLER_28_253
*1194 FILLER_28_261
*1195 FILLER_28_268
*1196 FILLER_28_27
*1197 FILLER_28_276
*1198 FILLER_28_29
*1199 FILLER_28_291
*1200 FILLER_28_3
*1201 FILLER_28_303
*1202 FILLER_28_307
*1203 FILLER_28_322
*1204 FILLER_28_334
*1205 FILLER_28_346
*1206 FILLER_28_358
*1207 FILLER_28_365
*1208 FILLER_28_377
*1209 FILLER_28_389
*1210 FILLER_28_401
*1211 FILLER_28_41
*1212 FILLER_28_53
*1213 FILLER_28_65
*1214 FILLER_28_77
*1215 FILLER_28_83
*1216 FILLER_28_85
*1217 FILLER_28_97
*1218 FILLER_29_101
*1219 FILLER_29_113
*1220 FILLER_29_127
*1221 FILLER_29_139
*1222 FILLER_29_15
*1223 FILLER_29_151
*1224 FILLER_29_163
*1225 FILLER_29_167
*1226 FILLER_29_169
*1227 FILLER_29_181
*1228 FILLER_29_193
*1229 FILLER_29_197
*1230 FILLER_29_208
*1231 FILLER_29_220
*1232 FILLER_29_225
*1233 FILLER_29_237
*1234 FILLER_29_249
*1235 FILLER_29_266
*1236 FILLER_29_27
*1237 FILLER_29_278
*1238 FILLER_29_281
*1239 FILLER_29_293
*1240 FILLER_29_3
*1241 FILLER_29_305
*1242 FILLER_29_317
*1243 FILLER_29_329
*1244 FILLER_29_335
*1245 FILLER_29_337
*1246 FILLER_29_349
*1247 FILLER_29_361
*1248 FILLER_29_373
*1249 FILLER_29_385
*1250 FILLER_29_39
*1251 FILLER_29_391
*1252 FILLER_29_393
*1253 FILLER_29_397
*1254 FILLER_29_51
*1255 FILLER_29_55
*1256 FILLER_29_57
*1257 FILLER_29_69
*1258 FILLER_29_81
*1259 FILLER_29_93
*1260 FILLER_2_109
*1261 FILLER_2_121
*1262 FILLER_2_133
*1263 FILLER_2_139
*1264 FILLER_2_141
*1265 FILLER_2_15
*1266 FILLER_2_153
*1267 FILLER_2_165
*1268 FILLER_2_177
*1269 FILLER_2_194
*1270 FILLER_2_197
*1271 FILLER_2_209
*1272 FILLER_2_221
*1273 FILLER_2_233
*1274 FILLER_2_245
*1275 FILLER_2_251
*1276 FILLER_2_253
*1277 FILLER_2_265
*1278 FILLER_2_27
*1279 FILLER_2_277
*1280 FILLER_2_289
*1281 FILLER_2_29
*1282 FILLER_2_3
*1283 FILLER_2_301
*1284 FILLER_2_307
*1285 FILLER_2_309
*1286 FILLER_2_321
*1287 FILLER_2_333
*1288 FILLER_2_345
*1289 FILLER_2_357
*1290 FILLER_2_363
*1291 FILLER_2_365
*1292 FILLER_2_377
*1293 FILLER_2_389
*1294 FILLER_2_401
*1295 FILLER_2_41
*1296 FILLER_2_53
*1297 FILLER_2_65
*1298 FILLER_2_77
*1299 FILLER_2_83
*1300 FILLER_2_85
*1301 FILLER_2_97
*1302 FILLER_30_109
*1303 FILLER_30_121
*1304 FILLER_30_133
*1305 FILLER_30_139
*1306 FILLER_30_141
*1307 FILLER_30_15
*1308 FILLER_30_153
*1309 FILLER_30_178
*1310 FILLER_30_190
*1311 FILLER_30_197
*1312 FILLER_30_209
*1313 FILLER_30_221
*1314 FILLER_30_233
*1315 FILLER_30_245
*1316 FILLER_30_251
*1317 FILLER_30_253
*1318 FILLER_30_265
*1319 FILLER_30_27
*1320 FILLER_30_277
*1321 FILLER_30_289
*1322 FILLER_30_29
*1323 FILLER_30_3
*1324 FILLER_30_301
*1325 FILLER_30_307
*1326 FILLER_30_309
*1327 FILLER_30_321
*1328 FILLER_30_333
*1329 FILLER_30_345
*1330 FILLER_30_357
*1331 FILLER_30_363
*1332 FILLER_30_365
*1333 FILLER_30_377
*1334 FILLER_30_389
*1335 FILLER_30_397
*1336 FILLER_30_41
*1337 FILLER_30_53
*1338 FILLER_30_65
*1339 FILLER_30_77
*1340 FILLER_30_83
*1341 FILLER_30_85
*1342 FILLER_30_97
*1343 FILLER_31_111
*1344 FILLER_31_113
*1345 FILLER_31_125
*1346 FILLER_31_137
*1347 FILLER_31_149
*1348 FILLER_31_15
*1349 FILLER_31_155
*1350 FILLER_31_161
*1351 FILLER_31_167
*1352 FILLER_31_169
*1353 FILLER_31_181
*1354 FILLER_31_193
*1355 FILLER_31_205
*1356 FILLER_31_217
*1357 FILLER_31_223
*1358 FILLER_31_225
*1359 FILLER_31_237
*1360 FILLER_31_249
*1361 FILLER_31_261
*1362 FILLER_31_27
*1363 FILLER_31_273
*1364 FILLER_31_279
*1365 FILLER_31_281
*1366 FILLER_31_293
*1367 FILLER_31_3
*1368 FILLER_31_305
*1369 FILLER_31_317
*1370 FILLER_31_329
*1371 FILLER_31_335
*1372 FILLER_31_337
*1373 FILLER_31_349
*1374 FILLER_31_361
*1375 FILLER_31_373
*1376 FILLER_31_385
*1377 FILLER_31_39
*1378 FILLER_31_391
*1379 FILLER_31_393
*1380 FILLER_31_405
*1381 FILLER_31_51
*1382 FILLER_31_55
*1383 FILLER_31_57
*1384 FILLER_31_63
*1385 FILLER_31_75
*1386 FILLER_31_87
*1387 FILLER_31_99
*1388 FILLER_32_105
*1389 FILLER_32_117
*1390 FILLER_32_129
*1391 FILLER_32_137
*1392 FILLER_32_141
*1393 FILLER_32_15
*1394 FILLER_32_171
*1395 FILLER_32_183
*1396 FILLER_32_195
*1397 FILLER_32_197
*1398 FILLER_32_209
*1399 FILLER_32_221
*1400 FILLER_32_233
*1401 FILLER_32_245
*1402 FILLER_32_251
*1403 FILLER_32_253
*1404 FILLER_32_265
*1405 FILLER_32_27
*1406 FILLER_32_287
*1407 FILLER_32_29
*1408 FILLER_32_299
*1409 FILLER_32_3
*1410 FILLER_32_307
*1411 FILLER_32_309
*1412 FILLER_32_321
*1413 FILLER_32_333
*1414 FILLER_32_345
*1415 FILLER_32_357
*1416 FILLER_32_363
*1417 FILLER_32_365
*1418 FILLER_32_377
*1419 FILLER_32_389
*1420 FILLER_32_401
*1421 FILLER_32_41
*1422 FILLER_32_71
*1423 FILLER_32_83
*1424 FILLER_32_85
*1425 FILLER_32_93
*1426 FILLER_33_113
*1427 FILLER_33_125
*1428 FILLER_33_137
*1429 FILLER_33_149
*1430 FILLER_33_15
*1431 FILLER_33_161
*1432 FILLER_33_167
*1433 FILLER_33_169
*1434 FILLER_33_181
*1435 FILLER_33_193
*1436 FILLER_33_207
*1437 FILLER_33_219
*1438 FILLER_33_223
*1439 FILLER_33_225
*1440 FILLER_33_237
*1441 FILLER_33_249
*1442 FILLER_33_261
*1443 FILLER_33_27
*1444 FILLER_33_279
*1445 FILLER_33_281
*1446 FILLER_33_298
*1447 FILLER_33_3
*1448 FILLER_33_310
*1449 FILLER_33_322
*1450 FILLER_33_334
*1451 FILLER_33_337
*1452 FILLER_33_349
*1453 FILLER_33_361
*1454 FILLER_33_373
*1455 FILLER_33_385
*1456 FILLER_33_39
*1457 FILLER_33_391
*1458 FILLER_33_393
*1459 FILLER_33_405
*1460 FILLER_33_45
*1461 FILLER_33_66
*1462 FILLER_33_78
*1463 FILLER_33_82
*1464 FILLER_33_94
*1465 FILLER_34_109
*1466 FILLER_34_117
*1467 FILLER_34_126
*1468 FILLER_34_138
*1469 FILLER_34_141
*1470 FILLER_34_15
*1471 FILLER_34_153
*1472 FILLER_34_165
*1473 FILLER_34_177
*1474 FILLER_34_189
*1475 FILLER_34_195
*1476 FILLER_34_197
*1477 FILLER_34_209
*1478 FILLER_34_221
*1479 FILLER_34_233
*1480 FILLER_34_245
*1481 FILLER_34_251
*1482 FILLER_34_253
*1483 FILLER_34_265
*1484 FILLER_34_27
*1485 FILLER_34_277
*1486 FILLER_34_289
*1487 FILLER_34_29
*1488 FILLER_34_3
*1489 FILLER_34_301
*1490 FILLER_34_307
*1491 FILLER_34_309
*1492 FILLER_34_321
*1493 FILLER_34_333
*1494 FILLER_34_345
*1495 FILLER_34_357
*1496 FILLER_34_363
*1497 FILLER_34_365
*1498 FILLER_34_37
*1499 FILLER_34_377
*1500 FILLER_34_389
*1501 FILLER_34_401
*1502 FILLER_34_48
*1503 FILLER_34_62
*1504 FILLER_34_74
*1505 FILLER_34_82
*1506 FILLER_34_85
*1507 FILLER_34_97
*1508 FILLER_35_103
*1509 FILLER_35_111
*1510 FILLER_35_113
*1511 FILLER_35_125
*1512 FILLER_35_137
*1513 FILLER_35_149
*1514 FILLER_35_161
*1515 FILLER_35_167
*1516 FILLER_35_172
*1517 FILLER_35_184
*1518 FILLER_35_196
*1519 FILLER_35_205
*1520 FILLER_35_21
*1521 FILLER_35_225
*1522 FILLER_35_244
*1523 FILLER_35_252
*1524 FILLER_35_260
*1525 FILLER_35_272
*1526 FILLER_35_281
*1527 FILLER_35_293
*1528 FILLER_35_305
*1529 FILLER_35_317
*1530 FILLER_35_329
*1531 FILLER_35_33
*1532 FILLER_35_335
*1533 FILLER_35_337
*1534 FILLER_35_349
*1535 FILLER_35_361
*1536 FILLER_35_373
*1537 FILLER_35_385
*1538 FILLER_35_39
*1539 FILLER_35_391
*1540 FILLER_35_393
*1541 FILLER_35_405
*1542 FILLER_35_51
*1543 FILLER_35_55
*1544 FILLER_35_57
*1545 FILLER_35_69
*1546 FILLER_35_81
*1547 FILLER_35_9
*1548 FILLER_35_93
*1549 FILLER_36_110
*1550 FILLER_36_138
*1551 FILLER_36_141
*1552 FILLER_36_153
*1553 FILLER_36_157
*1554 FILLER_36_181
*1555 FILLER_36_193
*1556 FILLER_36_197
*1557 FILLER_36_209
*1558 FILLER_36_21
*1559 FILLER_36_217
*1560 FILLER_36_221
*1561 FILLER_36_233
*1562 FILLER_36_239
*1563 FILLER_36_243
*1564 FILLER_36_251
*1565 FILLER_36_253
*1566 FILLER_36_265
*1567 FILLER_36_27
*1568 FILLER_36_277
*1569 FILLER_36_289
*1570 FILLER_36_29
*1571 FILLER_36_301
*1572 FILLER_36_307
*1573 FILLER_36_309
*1574 FILLER_36_321
*1575 FILLER_36_333
*1576 FILLER_36_345
*1577 FILLER_36_357
*1578 FILLER_36_363
*1579 FILLER_36_365
*1580 FILLER_36_377
*1581 FILLER_36_389
*1582 FILLER_36_401
*1583 FILLER_36_41
*1584 FILLER_36_53
*1585 FILLER_36_65
*1586 FILLER_36_77
*1587 FILLER_36_83
*1588 FILLER_36_85
*1589 FILLER_36_9
*1590 FILLER_36_91
*1591 FILLER_37_111
*1592 FILLER_37_113
*1593 FILLER_37_125
*1594 FILLER_37_144
*1595 FILLER_37_15
*1596 FILLER_37_156
*1597 FILLER_37_169
*1598 FILLER_37_181
*1599 FILLER_37_198
*1600 FILLER_37_210
*1601 FILLER_37_222
*1602 FILLER_37_225
*1603 FILLER_37_237
*1604 FILLER_37_249
*1605 FILLER_37_253
*1606 FILLER_37_262
*1607 FILLER_37_27
*1608 FILLER_37_274
*1609 FILLER_37_281
*1610 FILLER_37_293
*1611 FILLER_37_3
*1612 FILLER_37_305
*1613 FILLER_37_31
*1614 FILLER_37_317
*1615 FILLER_37_329
*1616 FILLER_37_335
*1617 FILLER_37_337
*1618 FILLER_37_349
*1619 FILLER_37_35
*1620 FILLER_37_361
*1621 FILLER_37_373
*1622 FILLER_37_385
*1623 FILLER_37_391
*1624 FILLER_37_393
*1625 FILLER_37_397
*1626 FILLER_37_47
*1627 FILLER_37_55
*1628 FILLER_37_57
*1629 FILLER_37_67
*1630 FILLER_37_79
*1631 FILLER_37_91
*1632 FILLER_37_95
*1633 FILLER_37_99
*1634 FILLER_38_109
*1635 FILLER_38_121
*1636 FILLER_38_133
*1637 FILLER_38_139
*1638 FILLER_38_141
*1639 FILLER_38_15
*1640 FILLER_38_153
*1641 FILLER_38_165
*1642 FILLER_38_177
*1643 FILLER_38_189
*1644 FILLER_38_195
*1645 FILLER_38_204
*1646 FILLER_38_216
*1647 FILLER_38_228
*1648 FILLER_38_240
*1649 FILLER_38_253
*1650 FILLER_38_257
*1651 FILLER_38_263
*1652 FILLER_38_27
*1653 FILLER_38_275
*1654 FILLER_38_287
*1655 FILLER_38_29
*1656 FILLER_38_299
*1657 FILLER_38_3
*1658 FILLER_38_307
*1659 FILLER_38_309
*1660 FILLER_38_321
*1661 FILLER_38_333
*1662 FILLER_38_345
*1663 FILLER_38_357
*1664 FILLER_38_363
*1665 FILLER_38_365
*1666 FILLER_38_37
*1667 FILLER_38_377
*1668 FILLER_38_389
*1669 FILLER_38_401
*1670 FILLER_38_44
*1671 FILLER_38_56
*1672 FILLER_38_68
*1673 FILLER_38_80
*1674 FILLER_38_85
*1675 FILLER_38_97
*1676 FILLER_39_108
*1677 FILLER_39_11
*1678 FILLER_39_113
*1679 FILLER_39_125
*1680 FILLER_39_137
*1681 FILLER_39_149
*1682 FILLER_39_161
*1683 FILLER_39_167
*1684 FILLER_39_169
*1685 FILLER_39_18
*1686 FILLER_39_181
*1687 FILLER_39_193
*1688 FILLER_39_205
*1689 FILLER_39_217
*1690 FILLER_39_223
*1691 FILLER_39_225
*1692 FILLER_39_237
*1693 FILLER_39_249
*1694 FILLER_39_277
*1695 FILLER_39_281
*1696 FILLER_39_293
*1697 FILLER_39_3
*1698 FILLER_39_30
*1699 FILLER_39_305
*1700 FILLER_39_317