*SPEF "ieee 1481-1999"
*DESIGN "mult4_SARSA_RUIDO_e9_SarsaNStepsRuido_e9_SarsaNStepsRuido_e9_SARSA_RUIDO_e9"
*DATE "11:53:35 Wednesday September 17, 2025"
*VENDOR "The OpenROAD Project"
*PROGRAM "OpenROAD"
*VERSION "edf00dff99f6c40d67a30c0e22a8191c5d2ed9d6"
*DESIGN_FLOW "NAME_SCOPE LOCAL" "PIN_CAP NONE"
*DIVIDER /
*DELIMITER :
*BUS_DELIMITER []
*T_UNIT 1 NS
*C_UNIT 1 PF
*R_UNIT 1 OHM
*L_UNIT 1 HENRY

*NAME_MAP
*1 A[0]
*2 A[1]
*3 A[2]
*4 A[3]
*5 B[0]
*6 B[1]
*7 B[2]
*8 B[3]
*9 P[0]
*10 P[1]
*11 P[2]
*12 P[3]
*13 P[4]
*14 P[5]
*15 P[6]
*16 P[7]
*19 _00_
*20 _01_
*21 _02_
*22 _03_
*23 _04_
*24 _05_
*25 _06_
*26 _07_
*27 _08_
*28 _09_
*29 _10_
*30 _11_
*31 _12_
*32 _13_
*33 _14_
*34 _15_
*35 _16_
*36 _17_
*37 _18_
*38 _19_
*39 _20_
*40 _21_
*41 _22_
*42 _23_
*43 _24_
*44 _25_
*45 _26_
*46 _27_
*47 _28_
*48 _29_
*49 _30_
*50 _31_
*51 _32_
*52 _33_
*53 _34_
*54 _35_
*55 _36_
*56 _37_
*57 _38_
*58 _39_
*59 _40_
*60 _41_
*61 _42_
*62 _43_
*63 net1
*64 net10
*65 net11
*66 net12
*67 net13
*68 net14
*69 net15
*70 net16
*71 net17
*72 net2
*73 net3
*74 net4
*75 net5
*76 net6
*77 net7
*78 net8
*79 net9
*80 FILLER_0_23
*81 FILLER_0_29
*82 FILLER_0_3
*83 FILLER_0_35
*84 FILLER_0_48
*85 FILLER_0_65
*86 FILLER_0_77
*87 FILLER_1_21
*88 FILLER_1_39
*89 FILLER_1_46
*90 FILLER_1_52
*91 FILLER_1_57
*92 FILLER_1_69
*93 FILLER_1_7
*94 FILLER_2_17
*95 FILLER_2_25
*96 FILLER_2_29
*97 FILLER_2_33
*98 FILLER_2_45
*99 FILLER_2_57
*100 FILLER_2_69
*101 FILLER_2_7
*102 FILLER_3_21
*103 FILLER_3_3
*104 FILLER_3_38
*105 FILLER_3_43
*106 FILLER_3_50
*107 FILLER_3_55
*108 FILLER_4_13
*109 FILLER_4_25
*110 FILLER_4_29
*111 FILLER_4_41
*112 FILLER_4_53
*113 FILLER_4_65
*114 FILLER_4_7
*115 FILLER_4_71
*116 FILLER_5_12
*117 FILLER_5_20
*118 FILLER_5_28
*119 FILLER_5_34
*120 FILLER_5_38
*121 FILLER_5_51
*122 FILLER_5_55
*123 FILLER_5_57
*124 FILLER_5_7
*125 FILLER_5_78
*126 FILLER_6_20
*127 FILLER_6_29
*128 FILLER_6_3
*129 FILLER_6_35
*130 FILLER_6_48
*131 FILLER_6_61
*132 FILLER_6_69
*133 FILLER_6_79
*134 FILLER_7_17
*135 FILLER_7_29
*136 FILLER_7_42
*137 FILLER_7_51
*138 FILLER_7_55
*139 FILLER_7_57
*140 FILLER_7_69
*141 FILLER_8_11
*142 FILLER_8_27
*143 FILLER_8_3
*144 FILLER_8_40
*145 FILLER_8_52
*146 FILLER_8_64
*147 FILLER_8_75
*148 FILLER_9_15
*149 FILLER_9_27
*150 FILLER_9_3
*151 FILLER_9_36
*152 FILLER_9_42
*153 FILLER_9_54
*154 FILLER_9_57
*155 FILLER_9_69
*156 PHY_EDGE_ROW_0_Left_10
*157 PHY_EDGE_ROW_0_Right_0
*158 PHY_EDGE_ROW_1_Left_11
*159 PHY_EDGE_ROW_1_Right_1
*160 PHY_EDGE_ROW_2_Left_12
*161 PHY_EDGE_ROW_2_Right_2
*162 PHY_EDGE_ROW_3_Left_13
*163 PHY_EDGE_ROW_3_Right_3
*164 PHY_EDGE_ROW_4_Left_14
*165 PHY_EDGE_ROW_4_Right_4
*166 PHY_EDGE_ROW_5_Left_15
*167 PHY_EDGE_ROW_5_Right_5
*168 PHY_EDGE_ROW_6_Left_16
*169 PHY_EDGE_ROW_6_Right_6
*170 PHY_EDGE_ROW_7_Left_17
*171 PHY_EDGE_ROW_7_Right_7
*172 PHY_EDGE_ROW_8_Left_18
*173 PHY_EDGE_ROW_8_Right_8
*174 PHY_EDGE_ROW_9_Left_19
*175 PHY_EDGE_ROW_9_Right_9
*176 TAP_TAPCELL_ROW_0_20
*177 TAP_TAPCELL_ROW_0_21
*178 TAP_TAPCELL_ROW_1_22
*179 TAP_TAPCELL_ROW_2_23
*180 TAP_TAPCELL_ROW_3_24
*181 TAP_TAPCELL_ROW_4_25
*182 TAP_TAPCELL_ROW_5_26
*183 TAP_TAPCELL_ROW_6_27
*184 TAP_TAPCELL_ROW_7_28
*185 TAP_TAPCELL_ROW_8_29
*186 TAP_TAPCELL_ROW_9_30
*187 TAP_TAPCELL_ROW_9_31
*188 _44_
*189 _45_
*190 _46_
*191 _47_
*192 _48_
*193 _49_
*194 _50_
*195 _51_
*196 _52_
*197 _53_
*198 _54_
*199 _55_
*200 _56_
*201 _57_
*202 _58_
*203 _59_
*204 _60_
*205 _61_
*206 _62_
*207 _63_
*208 _64_
*209 _65_
*210 _66_
*211 _67_
*212 _68_
*213 _69_
*214 _70_
*215 _71_
*216 _72_
*217 _73_
*218 _74_
*219 _75_
*220 _76_
*221 _77_
*222 _78_
*223 _79_
*224 _80_
*225 _81_
*226 _82_
*227 _83_
*228 _84_
*229 _85_
*230 _86_
*231 _87_
*232 _88_
*233 _89_
*234 _90_
*235 _91_
*236 _92_
*237 _93_
*238 _94_
*239 _95_
*240 input1
*241 input2
*242 input3
*243 input4
*244 input5
*245 input6
*246 input7
*247 input8
*248 max_cap17
*249 output10
*250 output11
*251 output12
*252 output13
*253 output14
*254 output15
*255 output16
*256 output9

*PORTS
A[0] I
A[1] I
A[2] I
A[3] I
B[0] I
B[1] I
B[2] I
B[3] I
P[0] O
P[1] O
P[2] O
P[3] O
P[4] O
P[5] O
P[6] O
P[7] O

*D_NET *1 0.00133785
*CONN
*P A[0] I
*I *240:A I *D sky130_fd_sc_hd__buf_1
*CAP
1 A[0] 0.000484485
2 *240:A 0.000484485
3 *240:A P[1] 0
4 *240:A *192:A 0.000158297
5 *240:A *63:14 2.37321e-05
6 *240:A *76:12 0.000114492
7 *240:A *76:36 7.23602e-05
*RES
1 A[0] *240:A 13.095 
*END

*D_NET *2 0.000865368
*CONN
*P A[1] I
*I *241:A I *D sky130_fd_sc_hd__clkbuf_2
*CAP
1 A[1] 0.000389644
2 *241:A 0.000389644
3 *241:A P[1] 0
4 *241:A *244:A 0
5 *241:A *75:16 8.60799e-05
*RES
1 A[1] *241:A 10.44 
*END

*D_NET *3 0.000669018
*CONN
*P A[2] I
*I *242:A I *D sky130_fd_sc_hd__clkbuf_2
*CAP
1 A[2] 0.000305437
2 *242:A 0.000305437
3 *242:A *243:A 2.85068e-05
4 *242:A *247:A 2.96366e-05
5 *242:A *78:8 0
*RES
1 A[2] *242:A 7.9443 
*END

*D_NET *4 0.00129273
*CONN
*P A[3] I
*I *243:A I *D sky130_fd_sc_hd__buf_1
*CAP
1 A[3] 0.000406865
2 *243:A 0.000406865
3 *243:A P[7] 3.14094e-05
4 *243:A *194:B 6.10392e-05
5 *243:A *219:A2 0
6 *243:A *237:A2 0.000199039
7 *243:A *74:10 7.06865e-05
8 *243:A *74:12 7.06865e-05
9 *243:A *77:62 1.7635e-05
10 *242:A *243:A 2.85068e-05
*RES
1 A[3] *243:A 7.88483 
*END

*D_NET *5 0.000821503
*CONN
*P B[0] I
*I *244:A I *D sky130_fd_sc_hd__dlymetal6s2s_1
*CAP
1 B[0] 0.000386605
2 *244:A 0.000386605
3 *244:A *75:16 4.82919e-05
4 *241:A *244:A 0
*RES
1 B[0] *244:A 10.35 
*END

*D_NET *6 0.000614194
*CONN
*P B[1] I
*I *245:A I *D sky130_fd_sc_hd__clkbuf_2
*CAP
1 B[1] 0.000293597
2 *245:A 0.000293597
3 *245:A *194:A 0
4 *245:A *246:A 2.69997e-05
*RES
1 B[1] *245:A 7.4343 
*END

*D_NET *7 0.000623655
*CONN
*P B[2] I
*I *246:A I *D sky130_fd_sc_hd__clkbuf_2
*CAP
1 B[2] 0.000284828
2 *246:A 0.000284828
3 *246:A *247:A 2.69997e-05
4 *245:A *246:A 2.69997e-05
*RES
1 B[2] *246:A 7.4343 
*END

*D_NET *8 0.000686959
*CONN
*P B[3] I
*I *247:A I *D sky130_fd_sc_hd__clkbuf_2
*CAP
1 B[3] 0.000315161
2 *247:A 0.000315161
3 *247:A *194:B 0
4 *242:A *247:A 2.96366e-05
5 *246:A *247:A 2.69997e-05
*RES
1 B[3] *247:A 7.9443 
*END

*D_NET *9 0.00134341
*CONN
*P P[0] O
*I *256:X O *D sky130_fd_sc_hd__buf_2
*CAP
1 P[0] 0.000501707
2 *256:X 0.000501707
3 P[0] P[2] 0
4 P[0] *193:C 6.05539e-05
5 P[0] *250:A 4.21973e-05
6 P[0] *256:A 0.000237249
*RES
1 *256:X P[0] 12.87 
*END

*D_NET *10 0.000953341
*CONN
*P P[1] O
*I *249:X O *D sky130_fd_sc_hd__buf_2
*CAP
1 P[1] 0.00041422
2 *249:X 0.00041422
3 P[1] *75:16 0.0001249
4 *240:A P[1] 0
5 *241:A P[1] 0
*RES
1 *249:X P[1] 10.53 
*END

*D_NET *11 0.00117378
*CONN
*P P[2] O
*I *250:X O *D sky130_fd_sc_hd__buf_2
*CAP
1 P[2] 0.000524439
2 *250:X 0.000524439
3 P[2] *193:C 0
4 P[2] *250:A 0.0001249
5 P[0] P[2] 0
*RES
1 *250:X P[2] 12.24 
*END

*D_NET *12 0.000691247
*CONN
*P P[3] O
*I *251:X O *D sky130_fd_sc_hd__buf_2
*CAP
1 P[3] 0.000292481
2 *251:X 0.000292481
3 P[3] P[4] 0
4 P[3] *251:A 0.000106285
*RES
1 *251:X P[3] 5.92503 
*END

*D_NET *13 0.00101774
*CONN
*P P[4] O
*I *252:X O *D sky130_fd_sc_hd__buf_2
*CAP
1 P[4] 0.000484406
2 *252:X 0.000484406
3 P[4] P[5] 0
4 P[4] *252:A 3.00381e-05
5 P[4] *43:12 1.88904e-05
6 P[3] P[4] 0
*RES
1 *252:X P[4] 7.4833 
*END

*D_NET *14 0.000584359
*CONN
*P P[5] O
*I *253:X O *D sky130_fd_sc_hd__buf_2
*CAP
1 P[5] 0.000292179
2 *253:X 0.000292179
3 P[5] *253:A 0
4 P[4] P[5] 0
*RES
1 *253:X P[5] 5.92503 
*END

*D_NET *15 0.000896884
*CONN
*P P[6] O
*I *254:X O *D sky130_fd_sc_hd__buf_2
*CAP
1 P[6] 0.000448442
2 *254:X 0.000448442
*RES
1 *254:X P[6] 11.55 
*END

*D_NET *16 0.000658473
*CONN
*P P[7] O
*I *255:X O *D sky130_fd_sc_hd__buf_2
*CAP
1 P[7] 0.000313532
2 *255:X 0.000313532
3 *243:A P[7] 3.14094e-05
*RES
1 *255:X P[7] 7.1793 
*END

*D_NET *19 0.000426493
*CONN
*I *219:A2 I *D sky130_fd_sc_hd__a211o_1
*I *188:Y O *D sky130_fd_sc_hd__inv_2
*CAP
1 *219:A2 0.000127123
2 *188:Y 0.000127123
3 *219:A2 *237:A2 0
4 *219:A2 *46:8 3.23391e-05
5 *219:A2 *73:28 8.8266e-05
6 *219:A2 *77:62 0
7 *219:A2 *77:81 5.16418e-05
8 *243:A *219:A2 0
*RES
1 *188:Y *219:A2 9.375 
*END

*D_NET *20 0.000569809
*CONN
*I *192:A I *D sky130_fd_sc_hd__nor2_1
*I *190:Y O *D sky130_fd_sc_hd__a22oi_1
*CAP
1 *192:A 0.000121033
2 *190:Y 0.000121033
3 *192:A *200:A2 0
4 *192:A *249:A 8.23457e-05
5 *192:A *63:14 8.71001e-05
6 *240:A *192:A 0.000158297
*RES
1 *190:Y *192:A 10.245 
*END

*D_NET *21 0.000348887
*CONN
*I *192:B I *D sky130_fd_sc_hd__nor2_1
*I *191:X O *D sky130_fd_sc_hd__o211a_1
*CAP
1 *192:B 0.000112635
2 *191:X 0.000112635
3 *192:B *191:B1 4.99619e-05
4 *192:B *194:A 0
5 *192:B *76:12 3.67779e-05
6 *192:B *76:36 3.68784e-05
*RES
1 *191:X *192:B 9.285 
*END

*D_NET *22 0.00480166
*CONN
*I *205:A1 I *D sky130_fd_sc_hd__o31a_1
*I *204:A I *D sky130_fd_sc_hd__nor4_1
*I *212:S I *D sky130_fd_sc_hd__mux2_1
*I *221:A2 I *D sky130_fd_sc_hd__a21oi_1
*I *220:B I *D sky130_fd_sc_hd__and3_1
*I *194:X O *D sky130_fd_sc_hd__and3_1
*CAP
1 *205:A1 0
2 *204:A 2.94984e-05
3 *212:S 6.45266e-06
4 *221:A2 0
5 *220:B 0
6 *194:X 9.68985e-05
7 *22:61 0.000229085
8 *22:36 0.000876789
9 *22:17 0.000806048
10 *22:6 0.000232196
11 *204:A *204:B 0.000136104
12 *204:A *204:D 4.24577e-05
13 *204:A *206:B 4.99619e-05
14 *212:S *23:10 4.00541e-06
15 *22:6 *220:A 1.0124e-05
16 *22:17 *220:A 3.13981e-05
17 *22:17 *220:C 6.17017e-05
18 *22:17 *221:A1 3.57349e-05
19 *22:17 *47:12 3.83194e-05
20 *22:17 *48:14 8.49205e-05
21 *22:36 *195:A 0.000237409
22 *22:36 *196:A1 0.000253902
23 *22:36 *196:B1 3.8769e-05
24 *22:36 *210:A0 8.35106e-05
25 *22:36 *210:S 1.56428e-05
26 *22:36 *212:A1 0.000315329
27 *22:36 *23:10 0.000324175
28 *22:36 *24:6 0.000439661
29 *22:36 *37:12 2.23611e-05
30 *22:36 *39:14 3.18857e-05
31 *22:61 *204:B 1.46828e-05
32 *22:61 *204:D 9.77597e-05
33 *22:61 *212:A1 0
34 *22:61 *23:10 8.11159e-05
35 *22:61 *30:16 2.24968e-05
36 *22:61 *31:12 5.1262e-05
*RES
1 *194:X *22:6 2.74 
2 *22:6 *220:B 1.6 
3 *22:6 *22:17 3.15 
4 *22:17 *221:A2 1.6 
5 *22:17 *22:36 16.59 
6 *22:36 *212:S 1.96 
7 *22:36 *22:61 7.66 
8 *22:61 *204:A 3.1 
9 *22:61 *205:A1 1.6 
*END

*D_NET *23 0.00170761
*CONN
*I *205:A2 I *D sky130_fd_sc_hd__o31a_1
*I *204:B I *D sky130_fd_sc_hd__nor4_1
*I *195:Y O *D sky130_fd_sc_hd__nor2_1
*CAP
1 *205:A2 0
2 *204:B 3.76893e-05
3 *195:Y 0.000105674
4 *23:10 0.000143363
5 *204:B *204:C 0.000201508
6 *204:B *205:A3 9.53428e-06
7 *204:B *206:B 2.30292e-05
8 *23:10 *204:C 2.16833e-05
9 *23:10 *204:D 1.60203e-05
10 *23:10 *205:A3 5.4155e-06
11 *23:10 *24:6 0.000513132
12 *23:10 *31:12 7.04759e-05
13 *204:A *204:B 0.000136104
14 *212:S *23:10 4.00541e-06
15 *22:36 *23:10 0.000324175
16 *22:61 *204:B 1.46828e-05
17 *22:61 *23:10 8.11159e-05
*RES
1 *195:Y *23:10 7.345 
2 *23:10 *204:B 3.79 
3 *23:10 *205:A2 1.6 
*END

*D_NET *24 0.00287646
*CONN
*I *204:C I *D sky130_fd_sc_hd__nor4_1
*I *205:A3 I *D sky130_fd_sc_hd__o31a_1
*I *196:Y O *D sky130_fd_sc_hd__a21oi_1
*CAP
1 *204:C 0.000173585
2 *205:A3 1.66402e-05
3 *196:Y 0.000644445
4 *24:6 0.000834671
5 *204:C *206:B 1.61831e-05
6 *204:B *204:C 0.000201508
7 *204:B *205:A3 9.53428e-06
8 *22:36 *24:6 0.000439661
9 *23:10 *204:C 2.16833e-05
10 *23:10 *205:A3 5.4155e-06
11 *23:10 *24:6 0.000513132
*RES
1 *196:Y *24:6 10.675 
2 *24:6 *205:A3 1.96 
3 *24:6 *204:C 4.12 
*END

*D_NET *25 0.00115154
*CONN
*I *202:A I *D sky130_fd_sc_hd__nor2_1
*I *203:A I *D sky130_fd_sc_hd__xnor2_1
*I *197:Y O *D sky130_fd_sc_hd__nand3_1
*CAP
1 *202:A 6.67264e-05
2 *203:A 0
3 *197:Y 0.000208563
4 *25:8 0.00027529
5 *202:A *202:B 0.000203178
6 *25:8 *202:B 4.39468e-05
7 *25:8 *29:10 0.000353831
*RES
1 *197:Y *25:8 5.77 
2 *25:8 *203:A 1.6 
3 *25:8 *202:A 3.43 
*END

*D_NET *26 0.00134621
*CONN
*I *201:A I *D sky130_fd_sc_hd__or3_1
*I *210:S I *D sky130_fd_sc_hd__mux2_1
*I *198:X O *D sky130_fd_sc_hd__and3_1
*CAP
1 *201:A 0.000109159
2 *210:S 0.00024875
3 *198:X 6.89064e-05
4 *26:10 0.000426815
5 *210:S *198:C 9.02927e-05
6 *210:S *201:C 8.92867e-06
7 *210:S *210:A0 7.23533e-05
8 *210:S *72:60 0.000182091
9 *210:S *78:59 2.86895e-05
10 *26:10 *201:B 4.77774e-05
11 *26:10 *72:32 8.53113e-06
12 *26:10 *72:60 3.82741e-05
13 *26:10 *75:53 0
14 *22:36 *210:S 1.56428e-05
*RES
1 *198:X *26:10 4.5375 
2 *26:10 *210:S 8.4675 
3 *26:10 *201:A 4.9725 
*END

*D_NET *27 0.000673999
*CONN
*I *201:B I *D sky130_fd_sc_hd__or3_1
*I *199:Y O *D sky130_fd_sc_hd__nor2_1
*CAP
1 *201:B 0.000198103
2 *199:Y 0.000198103
3 *201:B *198:C 2.55879e-05
4 *201:B *200:A1 0.000124895
5 *201:B *200:A2 2.11084e-05
6 *201:B *63:45 4.2242e-05
7 *201:B *63:54 1.61831e-05
8 *26:10 *201:B 4.77774e-05
*RES
1 *199:Y *201:B 7.115 
*END

*D_NET *28 0.000893243
*CONN
*I *201:C I *D sky130_fd_sc_hd__or3_1
*I *200:Y O *D sky130_fd_sc_hd__a21oi_1
*CAP
1 *201:C 0.000295423
2 *200:Y 0.000295423
3 *201:C *189:B 0.000224796
4 *201:C *199:B 0
5 *201:C *63:45 5.12008e-05
6 *201:C *63:54 1.08758e-05
7 *201:C *72:60 6.59587e-06
8 *210:S *201:C 8.92867e-06
*RES
1 *200:Y *201:C 9.92635 
*END

*D_NET *29 0.00222846
*CONN
*I *202:B I *D sky130_fd_sc_hd__nor2_1
*I *203:B I *D sky130_fd_sc_hd__xnor2_1
*I *201:X O *D sky130_fd_sc_hd__or3_1
*CAP
1 *202:B 0.000189034
2 *203:B 0
3 *201:X 0.000397596
4 *29:10 0.000586629
5 *202:B *30:16 4.99619e-05
6 *29:10 *197:A 0.000124895
7 *29:10 *75:53 4.77757e-05
8 *29:10 *75:66 0.000188081
9 *29:10 *79:6 4.35348e-05
10 *202:A *202:B 0.000203178
11 *25:8 *202:B 4.39468e-05
12 *25:8 *29:10 0.000353831
*RES
1 *201:X *29:10 9.76 
2 *29:10 *203:B 1.6 
3 *29:10 *202:B 5.44 
*END

*D_NET *30 0.00192904
*CONN
*I *216:A1 I *D sky130_fd_sc_hd__o21ai_1
*I *238:A I *D sky130_fd_sc_hd__or3_1
*I *202:Y O *D sky130_fd_sc_hd__nor2_1
*CAP
1 *216:A1 0.000220758
2 *238:A 0
3 *202:Y 0.000578905
4 *30:16 0.000799662
5 *216:A1 *216:B1 0.000174139
6 *216:A1 *43:12 2.20732e-05
7 *30:16 *216:A2 0
8 *30:16 *216:B1 2.0514e-05
9 *30:16 *238:B 4.05358e-05
10 *30:16 *248:A 0
11 *30:16 *251:A 0
12 *30:16 *31:12 0
13 *202:B *30:16 4.99619e-05
14 *22:61 *30:16 2.24968e-05
*RES
1 *202:Y *30:16 14.45 
2 *30:16 *238:A 1.6 
3 *30:16 *216:A1 5.71 
*END

*D_NET *31 0.00143042
*CONN
*I *204:D I *D sky130_fd_sc_hd__nor4_1
*I *205:B1 I *D sky130_fd_sc_hd__o31a_1
*I *203:Y O *D sky130_fd_sc_hd__xnor2_1
*CAP
1 *204:D 0.000185467
2 *205:B1 0
3 *203:Y 0.00027182
4 *31:12 0.000457287
5 *204:D *206:A 4.99619e-05
6 *204:D *206:B 0.000187904
7 *204:A *204:D 4.24577e-05
8 *22:61 *204:D 9.77597e-05
9 *22:61 *31:12 5.1262e-05
10 *23:10 *204:D 1.60203e-05
11 *23:10 *31:12 7.04759e-05
12 *30:16 *31:12 0
*RES
1 *203:Y *31:12 10.07 
2 *31:12 *205:B1 1.6 
3 *31:12 *204:D 5.515 
*END

*D_NET *32 0.00100038
*CONN
*I *206:A I *D sky130_fd_sc_hd__nor2_1
*I *248:A I *D sky130_fd_sc_hd__clkbuf_1
*I *204:Y O *D sky130_fd_sc_hd__nor4_1
*CAP
1 *206:A 0.000161486
2 *248:A 0.000222817
3 *204:Y 0
4 *32:4 0.000384303
5 *206:A *206:B 1.88658e-05
6 *248:A *216:A2 7.81829e-05
7 *248:A *251:A 6.36578e-05
8 *248:A *71:6 2.11084e-05
9 *204:D *206:A 4.99619e-05
10 *30:16 *248:A 0
*RES
1 *204:Y *32:4 1.6 
2 *32:4 *248:A 9.845 
3 *32:4 *206:A 3.7 
*END

*D_NET *33 0.000472096
*CONN
*I *206:B I *D sky130_fd_sc_hd__nor2_1
*I *205:X O *D sky130_fd_sc_hd__o31a_1
*CAP
1 *206:B 8.80762e-05
2 *205:X 8.80762e-05
3 *204:A *206:B 4.99619e-05
4 *204:B *206:B 2.30292e-05
5 *204:C *206:B 1.61831e-05
6 *204:D *206:B 0.000187904
7 *206:A *206:B 1.88658e-05
*RES
1 *205:X *206:B 6.2 
*END

*D_NET *34 0.00216776
*CONN
*I *215:A I *D sky130_fd_sc_hd__xnor2_1
*I *230:C I *D sky130_fd_sc_hd__and3_1
*I *207:Y O *D sky130_fd_sc_hd__nand2_1
*CAP
1 *215:A 0.000606186
2 *230:C 0.000150522
3 *207:Y 0
4 *34:4 0.000756708
5 *215:A *213:A 5.05521e-05
6 *215:A *215:B 0.000136838
7 *215:A *224:B1 0.000135142
8 *215:A *41:14 1.77665e-05
9 *215:A *50:16 1.47347e-05
10 *215:A *73:47 3.01094e-05
11 *215:A *73:56 7.28902e-06
12 *230:C *207:A 7.01303e-05
13 *230:C *224:A1 4.66108e-05
14 *230:C *224:A2 6.88421e-05
15 *230:C *230:A 1.52352e-05
16 *230:C *74:53 7.10593e-06
17 *230:C *77:92 5.39905e-05
*RES
1 *207:Y *34:4 1.6 
2 *34:4 *230:C 8.015 
3 *34:4 *215:A 14.195 
*END

*D_NET *35 0.000703657
*CONN
*I *220:C I *D sky130_fd_sc_hd__and3_1
*I *221:B1 I *D sky130_fd_sc_hd__a21oi_1
*I *208:X O *D sky130_fd_sc_hd__and4_1
*CAP
1 *220:C 3.89784e-05
2 *221:B1 0
3 *208:X 0.000114598
4 *35:12 0.000153577
5 *220:C *220:A 0.000144891
6 *35:12 *208:B 2.75145e-05
7 *35:12 *48:14 2.7881e-05
8 *35:12 *76:40 0.000134516
9 *35:12 *77:62 0
10 *22:17 *220:C 6.17017e-05
*RES
1 *208:X *35:12 7.685 
2 *35:12 *221:B1 1.6 
3 *35:12 *220:C 2.98 
*END

*D_NET *36 0.000620575
*CONN
*I *210:A0 I *D sky130_fd_sc_hd__mux2_1
*I *209:Y O *D sky130_fd_sc_hd__nand2_1
*CAP
1 *210:A0 0.000124542
2 *209:Y 0.000124542
3 *210:A0 *210:A1 5.16348e-05
4 *210:A0 *78:59 0.000163992
5 *210:S *210:A0 7.23533e-05
6 *22:36 *210:A0 8.35106e-05
*RES
1 *209:Y *210:A0 9.885 
*END

*D_NET *37 0.00135842
*CONN
*I *213:A I *D sky130_fd_sc_hd__nor2_1
*I *214:A I *D sky130_fd_sc_hd__xor2_1
*I *210:X O *D sky130_fd_sc_hd__mux2_1
*CAP
1 *213:A 4.00538e-05
2 *214:A 0
3 *210:X 0.000447182
4 *37:12 0.000487236
5 *213:A *214:B 8.8266e-05
6 *37:12 *196:B1 0.000156765
7 *37:12 *211:B 6.60042e-05
8 *37:12 *74:53 0
9 *215:A *213:A 5.05521e-05
10 *22:36 *37:12 2.23611e-05
*RES
1 *210:X *37:12 12.14 
2 *37:12 *214:A 1.6 
3 *37:12 *213:A 2.74 
*END

*D_NET *38 0.00106488
*CONN
*I *212:A0 I *D sky130_fd_sc_hd__mux2_1
*I *211:Y O *D sky130_fd_sc_hd__nand2_1
*CAP
1 *212:A0 0.000357793
2 *211:Y 0.000357793
3 *212:A0 *195:A 1.34594e-05
4 *212:A0 *212:A1 9.60203e-05
5 *212:A0 *39:14 0.000239813
*RES
1 *211:Y *212:A0 12.12 
*END

*D_NET *39 0.00143337
*CONN
*I *213:B I *D sky130_fd_sc_hd__nor2_1
*I *214:B I *D sky130_fd_sc_hd__xor2_1
*I *212:X O *D sky130_fd_sc_hd__mux2_1
*CAP
1 *213:B 0
2 *214:B 0.000103056
3 *212:X 0.000339088
4 *39:14 0.000442144
5 *39:14 *195:A 6.02143e-05
6 *39:14 *212:A1 0.000128906
7 *212:A0 *39:14 0.000239813
8 *213:A *214:B 8.8266e-05
9 *22:36 *39:14 3.18857e-05
*RES
1 *212:X *39:14 12.41 
2 *39:14 *214:B 3.445 
3 *39:14 *213:B 1.6 
*END

*D_NET *40 0.000475466
*CONN
*I *224:B1 I *D sky130_fd_sc_hd__a31o_1
*I *213:Y O *D sky130_fd_sc_hd__nor2_1
*CAP
1 *224:B1 0.000107714
2 *213:Y 0.000107714
3 *224:B1 *215:B 0.000124895
4 *215:A *224:B1 0.000135142
*RES
1 *213:Y *224:B1 9.72 
*END

*D_NET *41 0.00142978
*CONN
*I *215:B I *D sky130_fd_sc_hd__xnor2_1
*I *224:A3 I *D sky130_fd_sc_hd__a31o_1
*I *214:X O *D sky130_fd_sc_hd__xor2_1
*CAP
1 *215:B 0.000190778
2 *224:A3 0
3 *214:X 0.000176143
4 *41:14 0.000366922
5 *215:B *224:A1 2.20014e-05
6 *215:B *224:A2 3.75126e-05
7 *41:14 *224:A2 0.000122801
8 *41:14 *51:12 2.86975e-05
9 *41:14 *74:53 0.000205428
10 *215:A *215:B 0.000136838
11 *215:A *41:14 1.77665e-05
12 *224:B1 *215:B 0.000124895
*RES
1 *214:X *41:14 9.59 
2 *41:14 *224:A3 1.6 
3 *41:14 *215:B 5.845 
*END

*D_NET *42 0.00123553
*CONN
*I *216:B1 I *D sky130_fd_sc_hd__o21ai_1
*I *238:C I *D sky130_fd_sc_hd__or3_1
*I *215:Y O *D sky130_fd_sc_hd__xnor2_1
*CAP
1 *216:B1 9.56431e-05
2 *238:C 0
3 *215:Y 0.000388876
4 *42:12 0.000484519
5 *216:B1 *239:B 2.20039e-05
6 *216:B1 *43:12 4.98341e-05
7 *42:12 *239:B 0
8 *216:A1 *216:B1 0.000174139
9 *30:16 *216:B1 2.0514e-05
*RES
1 *215:Y *42:12 10.19 
2 *42:12 *238:C 1.6 
3 *42:12 *216:B1 5.11 
*END

*D_NET *43 0.00148762
*CONN
*I *228:A I *D sky130_fd_sc_hd__xnor2_1
*I *227:A_N I *D sky130_fd_sc_hd__and2b_1
*I *239:A I *D sky130_fd_sc_hd__and2_1
*I *216:Y O *D sky130_fd_sc_hd__o21ai_1
*CAP
1 *228:A 0.000126972
2 *227:A_N 5.47611e-05
3 *239:A 0
4 *216:Y 0.000119292
5 *43:25 0.000476908
6 *43:12 0.000414467
7 *228:A *228:B 0
8 *43:12 *239:B 0.000204424
9 P[4] *43:12 1.88904e-05
10 *216:A1 *43:12 2.20732e-05
11 *216:B1 *43:12 4.98341e-05
*RES
1 *216:Y *43:12 6.48 
2 *43:12 *239:A 3.6 
3 *43:12 *43:25 6.665 
4 *43:25 *227:A_N 2.395 
5 *43:25 *228:A 7.745 
*END

*D_NET *44 0.000489963
*CONN
*I *219:B1 I *D sky130_fd_sc_hd__a211o_1
*I *217:Y O *D sky130_fd_sc_hd__a21oi_1
*CAP
1 *219:B1 9.69292e-05
2 *217:Y 9.69292e-05
3 *219:B1 *217:A1 8.34281e-06
4 *219:B1 *217:A2 4.66108e-05
5 *219:B1 *217:B1 2.75145e-05
6 *219:B1 *219:A1 1.85674e-05
7 *219:B1 *45:10 3.95724e-05
8 *219:B1 *78:25 0.000155497
*RES
1 *217:Y *219:B1 5.75 
*END

*D_NET *45 0.00134898
*CONN
*I *219:C1 I *D sky130_fd_sc_hd__a211o_1
*I *237:A2 I *D sky130_fd_sc_hd__a211o_1
*I *218:X O *D sky130_fd_sc_hd__and3_1
*CAP
1 *219:C1 0
2 *237:A2 0.000212352
3 *218:X 0.000118023
4 *45:10 0.000330375
5 *237:A2 *237:A1 0
6 *237:A2 *255:A 8.65961e-05
7 *237:A2 *57:10 0
8 *45:10 *217:A1 1.08758e-05
9 *45:10 *77:81 0.00028386
10 *45:10 *78:25 2.7441e-05
11 *45:10 *78:34 4.0843e-05
12 *219:A2 *237:A2 0
13 *219:B1 *45:10 3.95724e-05
14 *243:A *237:A2 0.000199039
*RES
1 *218:X *45:10 4.84 
2 *45:10 *237:A2 9.485 
3 *45:10 *219:C1 1.6 
*END

*D_NET *46 0.00114398
*CONN
*I *223:A I *D sky130_fd_sc_hd__xor2_1
*I *231:A1 I *D sky130_fd_sc_hd__o21bai_1
*I *219:X O *D sky130_fd_sc_hd__a211o_1
*CAP
1 *223:A 0.000132968
2 *231:A1 0.000113957
3 *219:X 5.28736e-05
4 *46:8 0.000299798
5 *223:A *73:28 0.000122337
6 *223:A *73:47 0.000229825
7 *231:A1 *194:C 0
8 *231:A1 *48:14 9.50342e-06
9 *231:A1 *57:10 7.89689e-05
10 *46:8 *57:10 6.28843e-05
11 *46:8 *77:62 0
12 *46:8 *77:81 8.53113e-06
13 *219:A2 *46:8 3.23391e-05
*RES
1 *219:X *46:8 4.98 
2 *46:8 *231:A1 6 
3 *46:8 *223:A 6.81 
*END

*D_NET *47 0.000847115
*CONN
*I *222:A I *D sky130_fd_sc_hd__or2_1
*I *231:B1_N I *D sky130_fd_sc_hd__o21bai_1
*I *220:X O *D sky130_fd_sc_hd__and3_1
*CAP
1 *222:A 6.69729e-05
2 *231:B1_N 0
3 *220:X 0.000252608
4 *47:12 0.000319581
5 *222:A *222:B 4.82919e-05
6 *47:12 *48:14 4.82863e-05
7 *47:12 *76:40 7.30547e-05
8 *22:17 *47:12 3.83194e-05
*RES
1 *220:X *47:12 9.395 
2 *47:12 *231:B1_N 1.6 
3 *47:12 *222:A 2.74 
*END

*D_NET *48 0.000899134
*CONN
*I *222:B I *D sky130_fd_sc_hd__or2_1
*I *231:A2 I *D sky130_fd_sc_hd__o21bai_1
*I *221:Y O *D sky130_fd_sc_hd__a21oi_1
*CAP
1 *222:B 0.000117229
2 *231:A2 0
3 *221:Y 0.000222897
4 *48:14 0.000340126
5 *48:14 *194:C 0
6 *48:14 *77:62 0
7 *222:A *222:B 4.82919e-05
8 *231:A1 *48:14 9.50342e-06
9 *22:17 *48:14 8.49205e-05
10 *35:12 *48:14 2.7881e-05
11 *47:12 *48:14 4.82863e-05
*RES
1 *221:Y *48:14 9.245 
2 *48:14 *231:A2 1.6 
3 *48:14 *222:B 3.55 
*END

*D_NET *49 0.000170289
*CONN
*I *223:B I *D sky130_fd_sc_hd__xor2_1
*I *222:X O *D sky130_fd_sc_hd__or2_1
*CAP
1 *223:B 8.51447e-05
2 *222:X 8.51447e-05
3 *223:B *57:10 0
4 *223:B *78:53 0
*RES
1 *222:X *223:B 8.58 
*END

*D_NET *50 0.00204391
*CONN
*I *225:A I *D sky130_fd_sc_hd__and2_1
*I *226:A I *D sky130_fd_sc_hd__xor2_1
*I *223:X O *D sky130_fd_sc_hd__xor2_1
*CAP
1 *225:A 0
2 *226:A 0.000145766
3 *223:X 0.000444941
4 *50:16 0.000590706
5 *226:A *225:B 2.01504e-05
6 *226:A *226:B 9.63596e-05
7 *226:A *54:16 1.27611e-05
8 *50:16 *196:B1 8.30853e-06
9 *50:16 *224:A2 0.000153139
10 *50:16 *225:B 8.69583e-05
11 *50:16 *51:12 0
12 *50:16 *54:16 1.34594e-05
13 *50:16 *73:47 0.000250143
14 *50:16 *73:56 2.71896e-06
15 *50:16 *74:53 0.000203762
16 *215:A *50:16 1.47347e-05
*RES
1 *223:X *50:16 14.93 
2 *50:16 *226:A 4.405 
3 *50:16 *225:A 1.6 
*END

*D_NET *51 0.000805022
*CONN
*I *226:B I *D sky130_fd_sc_hd__xor2_1
*I *225:B I *D sky130_fd_sc_hd__and2_1
*I *224:X O *D sky130_fd_sc_hd__a31o_1
*CAP
1 *226:B 4.07487e-05
2 *225:B 2.62691e-05
3 *224:X 0.000148223
4 *51:12 0.00021524
5 *225:B *54:16 7.15196e-05
6 *226:B *54:16 7.08554e-05
7 *226:A *225:B 2.01504e-05
8 *226:A *226:B 9.63596e-05
9 *41:14 *51:12 2.86975e-05
10 *50:16 *225:B 8.69583e-05
11 *50:16 *51:12 0
*RES
1 *224:X *51:12 7.685 
2 *51:12 *225:B 2.74 
3 *51:12 *226:B 3.1 
*END

*D_NET *52 0.000588986
*CONN
*I *235:A1 I *D sky130_fd_sc_hd__o21ba_1
*I *229:A I *D sky130_fd_sc_hd__nor2_1
*I *225:X O *D sky130_fd_sc_hd__and2_1
*CAP
1 *235:A1 0
2 *229:A 0.000108692
3 *225:X 0.000128867
4 *52:12 0.000237559
5 *229:A *235:A2 4.62515e-05
6 *52:12 *232:A 0
7 *52:12 *237:C1 0
8 *52:12 *54:16 6.76164e-05
*RES
1 *225:X *52:12 7.43 
2 *52:12 *229:A 3.46 
3 *52:12 *235:A1 1.6 
*END

*D_NET *53 0.00131458
*CONN
*I *227:B I *D sky130_fd_sc_hd__and2b_1
*I *228:B I *D sky130_fd_sc_hd__xnor2_1
*I *226:X O *D sky130_fd_sc_hd__xor2_1
*CAP
1 *227:B 0
2 *228:B 0.000264223
3 *226:X 0.000304397
4 *53:6 0.00056862
5 *53:6 *54:16 0.000177337
6 *228:A *228:B 0
*RES
1 *226:X *53:6 6.88 
2 *53:6 *228:B 9.74 
3 *53:6 *227:B 1.6 
*END

*D_NET *54 0.00223292
*CONN
*I *235:A2 I *D sky130_fd_sc_hd__o21ba_1
*I *229:B I *D sky130_fd_sc_hd__nor2_1
*I *227:X O *D sky130_fd_sc_hd__and2b_1
*CAP
1 *235:A2 8.98498e-05
2 *229:B 0
3 *227:X 0.000789842
4 *54:16 0.000879692
5 *235:A2 *235:B1_N 1.37328e-05
6 *225:B *54:16 7.15196e-05
7 *226:A *54:16 1.27611e-05
8 *226:B *54:16 7.08554e-05
9 *229:A *235:A2 4.62515e-05
10 *50:16 *54:16 1.34594e-05
11 *52:12 *54:16 6.76164e-05
12 *53:6 *54:16 0.000177337
*RES
1 *227:X *54:16 16.265 
2 *54:16 *229:B 1.6 
3 *54:16 *235:A2 3.46 
*END

*D_NET *55 0.000678206
*CONN
*I *236:A I *D sky130_fd_sc_hd__xor2_1
*I *229:Y O *D sky130_fd_sc_hd__nor2_1
*CAP
1 *236:A 0.000303678
2 *229:Y 0.000303678
3 *236:A *236:B 0
4 *236:A *254:A 7.08493e-05
*RES
1 *229:Y *236:A 11.97 
*END

*D_NET *56 0.00186784
*CONN
*I *232:A I *D sky130_fd_sc_hd__and2_1
*I *233:A I *D sky130_fd_sc_hd__nor2_1
*I *230:X O *D sky130_fd_sc_hd__and3_1
*CAP
1 *232:A 3.58562e-05
2 *233:A 0.000354564
3 *230:X 0.000275102
4 *56:10 0.000665522
5 *232:A *237:C1 2.97004e-06
6 *233:A *232:B 8.3762e-05
7 *233:A *234:B 8.57024e-05
8 *233:A *58:6 0.0001249
9 *233:A *60:6 2.96334e-05
10 *56:10 *237:B1 0
11 *56:10 *237:C1 4.49498e-05
12 *56:10 *57:10 0
13 *56:10 *74:40 0.000164874
14 *52:12 *232:A 0
*RES
1 *230:X *56:10 7.995 
2 *56:10 *233:A 8.46 
3 *56:10 *232:A 4.215 
*END

*D_NET *57 0.00172356
*CONN
*I *232:B I *D sky130_fd_sc_hd__and2_1
*I *233:B I *D sky130_fd_sc_hd__nor2_1
*I *231:Y O *D sky130_fd_sc_hd__o21bai_1
*CAP
1 *232:B 9.1558e-05
2 *233:B 0
3 *231:Y 0.000380942
4 *57:10 0.0004725
5 *232:B *234:B 4.82919e-05
6 *232:B *58:6 0.0001249
7 *232:B *60:6 0.00012657
8 *57:10 *218:C 9.54469e-05
9 *57:10 *237:A1 0.000101317
10 *57:10 *237:B1 4.19967e-05
11 *57:10 *77:81 1.44259e-05
12 *223:B *57:10 0
13 *231:A1 *57:10 7.89689e-05
14 *233:A *232:B 8.3762e-05
15 *237:A2 *57:10 0
16 *46:8 *57:10 6.28843e-05
17 *56:10 *57:10 0
*RES
1 *231:Y *57:10 13.1 
2 *57:10 *233:B 1.6 
3 *57:10 *232:B 4.465 
*END

*D_NET *58 0.000826565
*CONN
*I *234:A I *D sky130_fd_sc_hd__or2_1
*I *237:B1 I *D sky130_fd_sc_hd__a211o_1
*I *232:X O *D sky130_fd_sc_hd__and2_1
*CAP
1 *234:A 0
2 *237:B1 0.000186306
3 *232:X 1.86282e-05
4 *58:6 0.000204934
5 *237:B1 *237:C1 0.0001249
6 *232:B *58:6 0.0001249
7 *233:A *58:6 0.0001249
8 *56:10 *237:B1 0
9 *57:10 *237:B1 4.19967e-05
*RES
1 *232:X *58:6 2.74 
2 *58:6 *237:B1 8.825 
3 *58:6 *234:A 1.6 
*END

*D_NET *59 0.000182773
*CONN
*I *234:B I *D sky130_fd_sc_hd__or2_1
*I *233:Y O *D sky130_fd_sc_hd__nor2_1
*CAP
1 *234:B 2.43895e-05
2 *233:Y 2.43895e-05
3 *232:B *234:B 4.82919e-05
4 *233:A *234:B 8.57024e-05
*RES
1 *233:Y *234:B 3.995 
*END

*D_NET *60 0.000856439
*CONN
*I *235:B1_N I *D sky130_fd_sc_hd__o21ba_1
*I *236:B I *D sky130_fd_sc_hd__xor2_1
*I *234:X O *D sky130_fd_sc_hd__or2_1
*CAP
1 *235:B1_N 4.33304e-05
2 *236:B 0.000120938
3 *234:X 0.000178982
4 *60:6 0.000343251
5 *232:B *60:6 0.00012657
6 *233:A *60:6 2.96334e-05
7 *235:A2 *235:B1_N 1.37328e-05
8 *236:A *236:B 0
*RES
1 *234:X *60:6 4.81 
2 *60:6 *236:B 7.49 
3 *60:6 *235:B1_N 2.41 
*END

*D_NET *61 0.000887542
*CONN
*I *237:C1 I *D sky130_fd_sc_hd__a211o_1
*I *235:X O *D sky130_fd_sc_hd__o21ba_1
*CAP
1 *237:C1 0.000357361
2 *235:X 0.000357361
3 *232:A *237:C1 2.97004e-06
4 *237:B1 *237:C1 0.0001249
5 *52:12 *237:C1 0
6 *56:10 *237:C1 4.49498e-05
*RES
1 *235:X *237:C1 13.17 
*END

*D_NET *62 0.000511256
*CONN
*I *239:B I *D sky130_fd_sc_hd__and2_1
*I *238:X O *D sky130_fd_sc_hd__or3_1
*CAP
1 *239:B 0.000142414
2 *238:X 0.000142414
3 *216:B1 *239:B 2.20039e-05
4 *42:12 *239:B 0
5 *43:12 *239:B 0.000204424
*RES
1 *238:X *239:B 9.72 
*END

*D_NET *63 0.00463763
*CONN
*I *198:A I *D sky130_fd_sc_hd__and3_1
*I *189:B I *D sky130_fd_sc_hd__and2_1
*I *200:B1 I *D sky130_fd_sc_hd__a21oi_1
*I *208:A I *D sky130_fd_sc_hd__and4_1
*I *190:A1 I *D sky130_fd_sc_hd__a22oi_1
*I *191:A1 I *D sky130_fd_sc_hd__o211a_1
*I *240:X O *D sky130_fd_sc_hd__buf_1
*CAP
1 *198:A 0
2 *189:B 0.000626635
3 *200:B1 1.42635e-05
4 *208:A 0.000134797
5 *190:A1 0
6 *191:A1 5.98186e-05
7 *240:X 3.81602e-05
8 *63:54 0.00064904
9 *63:45 0.000220156
10 *63:14 0.000211162
11 *63:8 0.00028614
12 *63:6 0.000221648
13 *189:B *199:B 0
14 *189:B *200:A1 1.88358e-05
15 *189:B *72:60 3.00448e-05
16 *189:B *75:53 4.61701e-06
17 *189:B *75:66 9.76131e-06
18 *191:A1 *190:A2 2.64511e-05
19 *191:A1 *191:A2 0.00010866
20 *191:A1 *191:B1 1.47347e-05
21 *191:A1 *75:22 0.000238919
22 *200:B1 *200:A2 9.72742e-06
23 *208:A *199:B 7.21296e-06
24 *208:A *208:B 4.60584e-05
25 *208:A *208:D 0.000275548
26 *208:A *76:36 0
27 *208:A *77:14 0.00012657
28 *208:A *77:21 0.000313852
29 *208:A *77:27 7.06865e-05
30 *63:6 *249:A 1.4389e-05
31 *63:14 *191:B1 1.61831e-05
32 *63:14 *200:A1 0
33 *63:14 *249:A 8.97564e-05
34 *63:14 *72:10 2.75145e-05
35 *63:14 *75:22 7.66083e-05
36 *63:14 *76:36 0
37 *63:14 *77:27 5.39961e-05
38 *63:45 *200:A2 0.000131871
39 *63:45 *249:A 7.68414e-06
40 *192:A *63:14 8.71001e-05
41 *201:B *63:45 4.2242e-05
42 *201:B *63:54 1.61831e-05
43 *201:C *189:B 0.000224796
44 *201:C *63:45 5.12008e-05
45 *201:C *63:54 1.08758e-05
46 *240:A *63:14 2.37321e-05
*RES
1 *240:X *63:6 2.05 
2 *63:6 *63:8 2 
3 *63:8 *63:14 5.96 
4 *63:14 *191:A1 4.135 
5 *63:14 *190:A1 1.6 
6 *63:8 *208:A 8.625 
7 *63:6 *63:45 2.985 
8 *63:45 *200:B1 1.96 
9 *63:45 *63:54 0.45 
10 *63:54 *189:B 8.68373 
11 *63:54 *198:A 1.6 
*END

*D_NET *64 0.000938932
*CONN
*I *249:A I *D sky130_fd_sc_hd__buf_2
*I *192:Y O *D sky130_fd_sc_hd__nor2_1
*CAP
1 *249:A 0.00026547
2 *192:Y 0.00026547
3 *249:A *200:A1 1.22676e-05
4 *249:A *200:A2 1.83756e-05
5 *249:A *72:10 4.82919e-05
6 *249:A *72:32 0
7 *249:A *75:16 4.99619e-05
8 *249:A *76:8 8.49205e-05
9 *192:A *249:A 8.23457e-05
10 *63:6 *249:A 1.4389e-05
11 *63:14 *249:A 8.97564e-05
12 *63:45 *249:A 7.68414e-06
*RES
1 *192:Y *249:A 12.405 
*END
