*SPEF "ieee 1481-1999"
*DESIGN "mult4_SARSA_WInd_e9_SARSA_RUIDO_e9_SARSA_RUIDO_e9_SARSA_RUIDO_e9"
*DATE "14:31:14 Tuesday September 16, 2025"
*VENDOR "The OpenROAD Project"
*PROGRAM "OpenROAD"
*VERSION "edf00dff99f6c40d67a30c0e22a8191c5d2ed9d6"
*DESIGN_FLOW "NAME_SCOPE LOCAL" "PIN_CAP NONE"
*DIVIDER /
*DELIMITER :
*BUS_DELIMITER []
*T_UNIT 1 NS
*C_UNIT 1 PF
*R_UNIT 1 OHM
*L_UNIT 1 HENRY

*NAME_MAP
*1 A[0]
*2 A[1]
*3 A[2]
*4 A[3]
*5 B[0]
*6 B[1]
*7 B[2]
*8 B[3]
*9 P[0]
*10 P[1]
*11 P[2]
*12 P[3]
*13 P[4]
*14 P[5]
*15 P[6]
*16 P[7]
*19 _00_
*20 _01_
*21 _02_
*22 _03_
*23 _04_
*24 _05_
*25 _06_
*26 _07_
*27 _08_
*28 _09_
*29 _10_
*30 _11_
*31 _12_
*32 _13_
*33 _14_
*34 _15_
*35 _16_
*36 _17_
*37 _18_
*38 _19_
*39 _20_
*40 _21_
*41 _22_
*42 mul_ll\.pp0
*43 net1
*44 net10
*45 net11
*46 net12
*47 net13
*48 net14
*49 net15
*50 net16
*51 net2
*52 net3
*53 net4
*54 net5
*55 net6
*56 net7
*57 net8
*58 net9
*59 FILLER_0_15
*60 FILLER_0_27
*61 FILLER_0_29
*62 FILLER_0_3
*63 FILLER_0_34
*64 FILLER_0_42
*65 FILLER_0_49
*66 FILLER_0_55
*67 FILLER_0_57
*68 FILLER_0_63
*69 FILLER_0_75
*70 FILLER_1_15
*71 FILLER_1_27
*72 FILLER_1_3
*73 FILLER_1_35
*74 FILLER_1_44
*75 FILLER_1_50
*76 FILLER_1_66
*77 FILLER_1_74
*78 FILLER_2_19
*79 FILLER_2_24
*80 FILLER_2_29
*81 FILLER_2_38
*82 FILLER_2_7
*83 FILLER_2_70
*84 FILLER_2_76
*85 FILLER_3_15
*86 FILLER_3_3
*87 FILLER_3_34
*88 FILLER_3_46
*89 FILLER_3_54
*90 FILLER_3_57
*91 FILLER_3_69
*92 FILLER_4_19
*93 FILLER_4_27
*94 FILLER_4_29
*95 FILLER_4_37
*96 FILLER_4_49
*97 FILLER_4_61
*98 FILLER_4_7
*99 FILLER_4_74
*100 FILLER_5_15
*101 FILLER_5_22
*102 FILLER_5_34
*103 FILLER_5_46
*104 FILLER_5_54
*105 FILLER_5_68
*106 FILLER_5_7
*107 FILLER_5_76
*108 FILLER_6_15
*109 FILLER_6_40
*110 FILLER_6_52
*111 FILLER_6_68
*112 FILLER_6_7
*113 FILLER_6_76
*114 FILLER_7_15
*115 FILLER_7_27
*116 FILLER_7_3
*117 FILLER_7_43
*118 FILLER_7_55
*119 FILLER_7_57
*120 FILLER_7_65
*121 FILLER_7_74
*122 FILLER_8_15
*123 FILLER_8_27
*124 FILLER_8_3
*125 FILLER_8_36
*126 FILLER_8_48
*127 FILLER_8_60
*128 FILLER_8_70
*129 FILLER_8_78
*130 FILLER_9_15
*131 FILLER_9_23
*132 FILLER_9_29
*133 FILLER_9_3
*134 FILLER_9_41
*135 FILLER_9_53
*136 FILLER_9_57
*137 FILLER_9_69
*138 PHY_EDGE_ROW_0_Left_10
*139 PHY_EDGE_ROW_0_Right_0
*140 PHY_EDGE_ROW_1_Left_11
*141 PHY_EDGE_ROW_1_Right_1
*142 PHY_EDGE_ROW_2_Left_12
*143 PHY_EDGE_ROW_2_Right_2
*144 PHY_EDGE_ROW_3_Left_13
*145 PHY_EDGE_ROW_3_Right_3
*146 PHY_EDGE_ROW_4_Left_14
*147 PHY_EDGE_ROW_4_Right_4
*148 PHY_EDGE_ROW_5_Left_15
*149 PHY_EDGE_ROW_5_Right_5
*150 PHY_EDGE_ROW_6_Left_16
*151 PHY_EDGE_ROW_6_Right_6
*152 PHY_EDGE_ROW_7_Left_17
*153 PHY_EDGE_ROW_7_Right_7
*154 PHY_EDGE_ROW_8_Left_18
*155 PHY_EDGE_ROW_8_Right_8
*156 PHY_EDGE_ROW_9_Left_19
*157 PHY_EDGE_ROW_9_Right_9
*158 TAP_TAPCELL_ROW_0_20
*159 TAP_TAPCELL_ROW_0_21
*160 TAP_TAPCELL_ROW_1_22
*161 TAP_TAPCELL_ROW_2_23
*162 TAP_TAPCELL_ROW_3_24
*163 TAP_TAPCELL_ROW_4_25
*164 TAP_TAPCELL_ROW_5_26
*165 TAP_TAPCELL_ROW_6_27
*166 TAP_TAPCELL_ROW_7_28
*167 TAP_TAPCELL_ROW_8_29
*168 TAP_TAPCELL_ROW_9_30
*169 TAP_TAPCELL_ROW_9_31
*170 _23_
*171 _24_
*172 _25_
*173 _26_
*174 _27_
*175 _28_
*176 _29_
*177 _30_
*178 _31_
*179 _32_
*180 _33_
*181 _34_
*182 _35_
*183 _36_
*184 _37_
*185 _38_
*186 _39_
*187 _40_
*188 _41_
*189 _42_
*190 _43_
*191 _44_
*192 _45_
*193 _46_
*194 _47_
*195 _48_
*196 _49_
*197 _50_
*198 _51_
*199 _52_
*200 _53_
*201 _54_
*202 input1
*203 input2
*204 input3
*205 input4
*206 input5
*207 input6
*208 input7
*209 input8
*210 output10
*211 output11
*212 output12
*213 output13
*214 output14
*215 output15
*216 output16
*217 output9

*PORTS
A[0] I
A[1] I
A[2] I
A[3] I
B[0] I
B[1] I
B[2] I
B[3] I
P[0] O
P[1] O
P[2] O
P[3] O
P[4] O
P[5] O
P[6] O
P[7] O

*D_NET *1 0.000904883
*CONN
*P A[0] I
*I *202:A I *D sky130_fd_sc_hd__buf_1
*CAP
1 A[0] 0.000442701
2 *202:A 0.000442701
3 *202:A *43:10 1.94812e-05
*RES
1 A[0] *202:A 47.3214 
*END

*D_NET *2 0.000681242
*CONN
*P A[1] I
*I *203:A I *D sky130_fd_sc_hd__buf_1
*CAP
1 A[1] 0.000249239
2 *203:A 0.000249239
3 *203:A *205:A 7.82427e-05
4 *203:A *208:A 7.82427e-05
5 *203:A *56:10 2.6278e-05
6 *203:A *57:77 0
*RES
1 A[1] *203:A 48.8397 
*END

*D_NET *3 0.000768284
*CONN
*P A[2] I
*I *204:A I *D sky130_fd_sc_hd__clkbuf_2
*CAP
1 A[2] 0.000355741
2 *204:A 0
3 *3:17 0.000355741
4 *3:17 P[4] 2.79122e-05
5 *3:17 *8:17 2.88889e-05
*RES
1 A[2] *3:17 28.3391 
2 *3:17 *204:A 23 
*END

*D_NET *4 0.000533372
*CONN
*P A[3] I
*I *205:A I *D sky130_fd_sc_hd__buf_1
*CAP
1 A[3] 0.000191485
2 *205:A 0.000191485
3 *205:A P[7] 7.21596e-05
4 *205:A *57:77 0
5 *203:A *205:A 7.82427e-05
*RES
1 A[3] *205:A 47.7832 
*END

*D_NET *5 0.000908967
*CONN
*P B[0] I
*I *206:A I *D sky130_fd_sc_hd__clkbuf_1
*CAP
1 B[0] 0.000444743
2 *206:A 0.000444743
3 *206:A P[0] 0
4 *206:A P[2] 0
5 *206:A *54:10 1.94812e-05
*RES
1 B[0] *206:A 47.3214 
*END

*D_NET *6 0.000627204
*CONN
*P B[1] I
*I *207:A I *D sky130_fd_sc_hd__clkbuf_2
*CAP
1 B[1] 0.000274013
2 *207:A 0.000274013
3 *207:A P[1] 7.91783e-05
*RES
1 B[1] *207:A 48.2212 
*END

*D_NET *7 0.00069975
*CONN
*P B[2] I
*I *208:A I *D sky130_fd_sc_hd__buf_1
*CAP
1 B[2] 0.000270446
2 *208:A 0.000270446
3 *208:A P[1] 8.06147e-05
4 *208:A *57:77 0
5 *203:A *208:A 7.82427e-05
*RES
1 B[2] *208:A 49.1918 
*END

*D_NET *8 0.000775317
*CONN
*P B[3] I
*I *209:A I *D sky130_fd_sc_hd__clkbuf_2
*CAP
1 B[3] 0.000358769
2 *209:A 0
3 *8:17 0.000358769
4 *8:17 P[3] 1.5289e-05
5 *8:17 *12:14 1.35999e-05
6 *3:17 *8:17 2.88889e-05
*RES
1 B[3] *8:17 28.3391 
2 *8:17 *209:A 23 
*END

*D_NET *9 0.000928267
*CONN
*P P[0] O
*I *217:X O *D sky130_fd_sc_hd__buf_2
*CAP
1 P[0] 0.000464134
2 *217:X 0.000464134
3 *206:A P[0] 0
*RES
1 *217:X P[0] 47.0936 
*END

*D_NET *10 0.000555291
*CONN
*P P[1] O
*I *210:X O *D sky130_fd_sc_hd__buf_2
*CAP
1 P[1] 0.000197749
2 *210:X 0.000197749
3 *207:A P[1] 7.91783e-05
4 *208:A P[1] 8.06147e-05
*RES
1 *210:X P[1] 47.5169 
*END

*D_NET *11 0.000993477
*CONN
*P P[2] O
*I *211:X O *D sky130_fd_sc_hd__buf_2
*CAP
1 P[2] 0.000496739
2 *211:X 0.000496739
3 *206:A P[2] 0
*RES
1 *211:X P[2] 47.86 
*END

*D_NET *12 0.000676002
*CONN
*P P[3] O
*I *212:X O *D sky130_fd_sc_hd__buf_2
*CAP
1 P[3] 8.68308e-05
2 *212:X 0.000236726
3 *12:14 0.000323556
4 *8:17 P[3] 1.5289e-05
5 *8:17 *12:14 1.35999e-05
*RES
1 *212:X *12:14 49.9 
2 *12:14 P[3] 0.382667 
*END

*D_NET *13 0.000553493
*CONN
*P P[4] O
*I *213:X O *D sky130_fd_sc_hd__buf_2
*CAP
1 P[4] 0.000262791
2 *213:X 0.000262791
3 *3:17 P[4] 2.79122e-05
*RES
1 *213:X P[4] 47.1648 
*END

*D_NET *14 0.000960449
*CONN
*P P[5] O
*I *214:X O *D sky130_fd_sc_hd__buf_2
*CAP
1 P[5] 0.000480224
2 *214:X 0.000480224
*RES
1 *214:X P[5] 48.5021 
*END

*D_NET *15 0.000669729
*CONN
*P P[6] O
*I *215:X O *D sky130_fd_sc_hd__buf_2
*CAP
1 P[6] 0.000291176
2 *215:X 0.000291176
3 P[6] P[7] 8.73764e-05
4 P[6] *49:8 0
*RES
1 *215:X P[6] 48.5734 
*END

*D_NET *16 0.000525342
*CONN
*P P[7] O
*I *216:X O *D sky130_fd_sc_hd__buf_2
*CAP
1 P[7] 0.000182903
2 *216:X 0.000182903
3 P[7] *177:B 0
4 P[6] P[7] 8.73764e-05
5 *205:A P[7] 7.21596e-05
*RES
1 *216:X P[7] 47.1648 
*END

*D_NET *19 0.00397404
*CONN
*I *174:B1 I *D sky130_fd_sc_hd__o2bb2a_1
*I *173:A_N I *D sky130_fd_sc_hd__and4bb_1
*I *198:B1 I *D sky130_fd_sc_hd__a211oi_1
*I *185:A1 I *D sky130_fd_sc_hd__o211a_1
*I *171:X O *D sky130_fd_sc_hd__and4_1
*CAP
1 *174:B1 0
2 *173:A_N 2.34823e-05
3 *198:B1 0
4 *185:A1 8.5223e-05
5 *171:X 0.000163141
6 *19:27 0.00054867
7 *19:12 0.000827826
8 *19:8 0.000420639
9 *19:6 0.000366364
10 *185:A1 *185:C1 1.3523e-05
11 *185:A1 *21:8 0.000142282
12 *185:A1 *31:31 0.000188927
13 *185:A1 *52:50 6.17437e-06
14 *19:6 *43:37 1.40958e-05
15 *19:6 *55:20 0.000172564
16 *19:6 *55:30 1.76557e-05
17 *19:8 *173:B_N 0.000107569
18 *19:8 *173:C 4.17736e-05
19 *19:8 *174:A1_N 0.000111443
20 *19:8 *43:37 1.5769e-05
21 *19:12 *173:C 0.000231227
22 *19:12 *21:8 0.000100069
23 *19:12 *52:50 5.80851e-05
24 *19:12 *52:57 1.54565e-05
25 *19:27 *198:C1 9.67842e-05
26 *19:27 *31:31 0.000114666
27 *19:27 *32:23 8.4047e-05
28 *19:27 *43:75 6.58415e-06
*RES
1 *171:X *19:6 26.48 
2 *19:6 *19:8 4.43286 
3 *19:8 *19:12 5.40643 
4 *19:12 *185:A1 26.0036 
5 *19:12 *19:27 37.1671 
6 *19:27 *198:B1 23 
7 *19:8 *173:A_N 23.4971 
8 *19:6 *174:B1 23 
*END

*D_NET *20 0.00158151
*CONN
*I *174:B2 I *D sky130_fd_sc_hd__o2bb2a_1
*I *173:B_N I *D sky130_fd_sc_hd__and4bb_1
*I *172:Y O *D sky130_fd_sc_hd__a22oi_1
*CAP
1 *174:B2 0
2 *173:B_N 0.000160794
3 *172:Y 0.000251516
4 *20:12 0.000160794
5 *20:10 0.000251516
6 *173:B_N *173:C 5.50049e-05
7 *173:B_N *174:A1_N 9.90052e-05
8 *173:B_N *43:37 5.92108e-05
9 *173:B_N *52:57 0.000180218
10 *173:B_N *55:20 0
11 *20:10 *42:8 5.50049e-05
12 *20:10 *43:37 0.000136486
13 *20:10 *51:22 0
14 *20:10 *52:65 0
15 *20:10 *54:10 0
16 *20:10 *54:21 0
17 *20:10 *55:30 6.4393e-05
18 *19:8 *173:B_N 0.000107569
*RES
1 *172:Y *20:10 41.9357 
2 *20:10 *20:12 15 
3 *20:12 *173:B_N 27.4536 
4 *20:12 *174:B2 23 
*END

*D_NET *21 0.00300132
*CONN
*I *198:C1 I *D sky130_fd_sc_hd__a211oi_1
*I *185:A2 I *D sky130_fd_sc_hd__o211a_1
*I *175:A I *D sky130_fd_sc_hd__nor2_1
*I *173:X O *D sky130_fd_sc_hd__and4bb_1
*CAP
1 *198:C1 0.000204186
2 *185:A2 0
3 *175:A 0.00018964
4 *173:X 0.000157141
5 *21:12 0.000287151
6 *21:8 0.000458838
7 *175:A *31:8 8.71559e-05
8 *175:A *43:20 2.46906e-05
9 *175:A *52:50 0.000320308
10 *175:A *55:36 0.000361186
11 *175:A *57:36 5.7618e-05
12 *198:C1 *43:75 7.74193e-05
13 *198:C1 *57:36 5.62433e-05
14 *21:8 *185:B1 6.17437e-06
15 *21:8 *185:C1 2.32787e-05
16 *21:8 *199:A 0.000233367
17 *21:8 *32:23 8.46778e-05
18 *21:12 *57:36 3.31127e-05
19 *185:A1 *21:8 0.000142282
20 *19:12 *21:8 0.000100069
21 *19:27 *198:C1 9.67842e-05
*RES
1 *173:X *21:8 42.9093 
2 *21:8 *21:12 1.47071 
3 *21:12 *175:A 44.5664 
4 *21:12 *185:A2 38 
5 *21:8 *198:C1 41.9771 
*END

*D_NET *22 0.00136007
*CONN
*I *175:B I *D sky130_fd_sc_hd__nor2_1
*I *174:X O *D sky130_fd_sc_hd__o2bb2a_1
*CAP
1 *175:B 8.17384e-05
2 *174:X 0.000165149
3 *22:8 0.000246888
4 *175:B *43:20 0.000225695
5 *175:B *55:36 0.000402732
6 *22:8 *43:37 0
7 *22:8 *52:65 5.21127e-05
8 *22:8 *54:21 0.000185755
*RES
1 *174:X *22:8 41.3143 
2 *22:8 *175:B 42.4329 
*END

*D_NET *23 0.00105238
*CONN
*I *181:A I *D sky130_fd_sc_hd__xor2_1
*I *176:Y O *D sky130_fd_sc_hd__nand2_1
*CAP
1 *181:A 0.000240351
2 *176:Y 8.23585e-05
3 *23:8 0.000322709
4 *181:A *180:A1 9.84794e-05
5 *181:A *180:B1_N 9.41704e-05
6 *181:A *181:B 5.70419e-05
7 *181:A *40:6 4.85864e-05
8 *23:8 *53:26 0.000108681
9 *23:8 *57:77 0
*RES
1 *176:Y *23:8 39.5536 
2 *23:8 *181:A 42.93 
*END

*D_NET *24 0.000649939
*CONN
*I *197:A I *D sky130_fd_sc_hd__xnor2_1
*I *177:Y O *D sky130_fd_sc_hd__nand2_1
*CAP
1 *197:A 0.00016202
2 *177:Y 9.07631e-05
3 *24:8 0.000252783
4 *197:A *197:B 9.84794e-05
5 *24:8 *197:B 4.58924e-05
*RES
1 *177:Y *24:8 39.9057 
2 *24:8 *197:A 41.0036 
*END

*D_NET *25 0.00148659
*CONN
*I *180:A2 I *D sky130_fd_sc_hd__a21bo_1
*I *190:B1 I *D sky130_fd_sc_hd__a32o_1
*I *178:X O *D sky130_fd_sc_hd__and3_1
*CAP
1 *180:A2 0.000138485
2 *190:B1 1.04715e-05
3 *178:X 0.00040977
4 *25:10 0.000558726
5 *180:A2 *180:B1_N 4.74809e-05
6 *180:A2 *26:10 1.58805e-05
7 *180:A2 *36:8 0
8 *180:A2 *53:26 1.69668e-05
9 *190:B1 *190:A1 2.39868e-05
10 *190:B1 *190:A3 2.39868e-05
11 *25:10 *26:10 7.91493e-05
12 *25:10 *51:16 9.91798e-05
13 *25:10 *51:22 4.67488e-05
14 *25:10 *52:65 0
15 *25:10 *57:54 1.57571e-05
*RES
1 *178:X *25:10 43.7379 
2 *25:10 *190:B1 38.2796 
3 *25:10 *180:A2 40.61 
*END

*D_NET *26 0.00223613
*CONN
*I *180:B1_N I *D sky130_fd_sc_hd__a21bo_1
*I *190:A3 I *D sky130_fd_sc_hd__a32o_1
*I *179:X O *D sky130_fd_sc_hd__a22o_1
*CAP
1 *180:B1_N 0.000186372
2 *190:A3 7.5691e-05
3 *179:X 0.000272357
4 *26:10 0.000534419
5 *180:B1_N *40:6 4.38068e-06
6 *180:B1_N *53:26 0.000108681
7 *190:A3 *176:B 0.000265439
8 *190:A3 *190:A1 4.75116e-05
9 *190:A3 *190:A2 4.37033e-05
10 *190:A3 *190:B2 6.17437e-06
11 *26:10 *179:B1 1.12487e-05
12 *26:10 *51:22 8.72173e-05
13 *26:10 *52:65 0
14 *26:10 *53:26 3.81486e-05
15 *26:10 *56:35 0.000238194
16 *26:10 *57:54 4.34876e-05
17 *26:10 *57:62 1.24376e-05
18 *180:A2 *180:B1_N 4.74809e-05
19 *180:A2 *26:10 1.58805e-05
20 *181:A *180:B1_N 9.41704e-05
21 *190:B1 *190:A3 2.39868e-05
22 *25:10 *26:10 7.91493e-05
*RES
1 *179:X *26:10 43.4686 
2 *26:10 *190:A3 41.0243 
3 *26:10 *180:B1_N 41.1279 
*END

*D_NET *27 0.000149461
*CONN
*I *181:B I *D sky130_fd_sc_hd__xor2_1
*I *180:X O *D sky130_fd_sc_hd__a21bo_1
*CAP
1 *181:B 1.76887e-05
2 *180:X 1.76887e-05
3 *181:B *40:6 5.70419e-05
4 *181:A *181:B 5.70419e-05
*RES
1 *180:X *181:B 47.0979 
*END

*D_NET *28 0.0023313
*CONN
*I *195:A1 I *D sky130_fd_sc_hd__a221o_1
*I *186:B1 I *D sky130_fd_sc_hd__o21a_1
*I *187:A I *D sky130_fd_sc_hd__nor2_1
*I *181:X O *D sky130_fd_sc_hd__xor2_1
*CAP
1 *195:A1 0
2 *186:B1 0.000115518
3 *187:A 0
4 *181:X 0.000323827
5 *28:16 0.000202697
6 *28:8 0.000411006
7 *186:B1 *186:A1 9.13704e-05
8 *186:B1 *195:B2 2.57604e-05
9 *186:B1 *35:6 0.00031495
10 *28:8 *195:A2 3.82386e-05
11 *28:8 *195:B2 7.86509e-06
12 *28:8 *35:29 0.000101762
13 *28:8 *40:6 0.00035371
14 *28:16 *186:A1 2.3853e-05
15 *28:16 *195:A2 0.000197354
16 *28:16 *195:B2 5.58383e-05
17 *28:16 *35:6 1.1674e-05
18 *28:16 *35:29 5.58806e-05
*RES
1 *181:X *28:8 31.7414 
2 *28:8 *28:16 3.66643 
3 *28:16 *187:A 23 
4 *28:16 *186:B1 27.4743 
5 *28:8 *195:A1 23 
*END

*D_NET *29 0.00175695
*CONN
*I *195:A2 I *D sky130_fd_sc_hd__a221o_1
*I *186:A1 I *D sky130_fd_sc_hd__o21a_1
*I *182:X O *D sky130_fd_sc_hd__and4_1
*CAP
1 *195:A2 0.000220527
2 *186:A1 0.00016013
3 *182:X 0.000241069
4 *29:12 0.000380657
5 *29:10 0.000241069
6 *29:10 *182:C 2.30292e-05
7 *29:10 *188:A1 0
8 *29:10 *32:23 0
9 *29:10 *34:8 0.000139647
10 *186:B1 *186:A1 9.13704e-05
11 *28:8 *195:A2 3.82386e-05
12 *28:16 *186:A1 2.3853e-05
13 *28:16 *195:A2 0.000197354
*RES
1 *182:X *29:10 42.64 
2 *29:10 *29:12 15 
3 *29:12 *186:A1 26.19 
4 *29:12 *195:A2 27.0238 
*END

*D_NET *30 0.00322166
*CONN
*I *198:A1 I *D sky130_fd_sc_hd__a211oi_1
*I *188:A1 I *D sky130_fd_sc_hd__a21oi_1
*I *185:B1 I *D sky130_fd_sc_hd__o211a_1
*I *183:Y O *D sky130_fd_sc_hd__nand4_1
*CAP
1 *198:A1 0.000219787
2 *188:A1 0.000459534
3 *185:B1 0.000260907
4 *183:Y 0
5 *30:6 0.000720442
6 *30:4 0.000219787
7 *185:B1 *182:B 1.14452e-05
8 *185:B1 *185:C1 8.2854e-05
9 *185:B1 *199:A 0.000231474
10 *185:B1 *43:56 0.000163361
11 *185:B1 *52:33 2.82307e-05
12 *185:B1 *55:42 0.000248979
13 *188:A1 *182:B 9.94675e-05
14 *188:A1 *188:A2 9.16459e-05
15 *188:A1 *188:B1 9.84794e-05
16 *188:A1 *189:B 0.000106326
17 *188:A1 *34:8 0
18 *188:A1 *52:33 3.63546e-05
19 *198:A1 *41:10 8.06804e-06
20 *198:A1 *43:75 0.000128347
21 *21:8 *185:B1 6.17437e-06
22 *29:10 *188:A1 0
*RES
1 *183:Y *30:4 23 
2 *30:4 *30:6 15 
3 *30:6 *185:B1 45.3121 
4 *30:6 *188:A1 46.7829 
5 *30:4 *198:A1 26.0036 
*END

*D_NET *31 0.00198665
*CONN
*I *198:A2 I *D sky130_fd_sc_hd__a211oi_1
*I *185:C1 I *D sky130_fd_sc_hd__o211a_1
*I *184:X O *D sky130_fd_sc_hd__a22o_1
*CAP
1 *198:A2 0
2 *185:C1 0.000139302
3 *184:X 6.35555e-05
4 *31:31 0.000360022
5 *31:12 0.000519017
6 *31:8 8.32488e-05
7 *185:C1 *199:A 0
8 *31:31 *32:23 0.000164282
9 *31:31 *43:75 0.000146822
10 *31:31 *57:36 0
11 *175:A *31:8 8.71559e-05
12 *185:A1 *185:C1 1.3523e-05
13 *185:A1 *31:31 0.000188927
14 *185:B1 *185:C1 8.2854e-05
15 *19:27 *31:31 0.000114666
16 *21:8 *185:C1 2.32787e-05
*RES
1 *184:X *31:8 39.2014 
2 *31:8 *31:12 15.4971 
3 *31:12 *185:C1 25.5479 
4 *31:12 *31:31 38.2443 
5 *31:31 *198:A2 23 
*END

*D_NET *32 0.00471056
*CONN
*I *187:B I *D sky130_fd_sc_hd__nor2_1
*I *186:A2 I *D sky130_fd_sc_hd__o21a_1
*I *195:B1 I *D sky130_fd_sc_hd__a221o_1
*I *199:A I *D sky130_fd_sc_hd__nor2_1
*I *185:X O *D sky130_fd_sc_hd__o211a_1
*CAP
1 *187:B 0
2 *186:A2 9.63283e-05
3 *195:B1 0
4 *199:A 0.00054511
5 *185:X 0
6 *32:49 6.76263e-05
7 *32:36 0.000462993
8 *32:23 0.000992934
9 *32:4 0.00123901
10 *186:A2 *35:6 0.000141954
11 *32:23 *43:75 3.67885e-05
12 *32:23 *57:36 0
13 *32:36 *34:8 0
14 *32:36 *35:6 0.000127821
15 *32:36 *35:29 0.000149032
16 *32:36 *38:16 2.04854e-05
17 *32:49 *188:B1 0
18 *32:49 *194:A 0
19 *32:49 *34:8 1.14452e-05
20 *32:49 *38:16 2.11887e-05
21 *185:B1 *199:A 0.000231474
22 *185:C1 *199:A 0
23 *19:27 *32:23 8.4047e-05
24 *21:8 *199:A 0.000233367
25 *21:8 *32:23 8.46778e-05
26 *29:10 *32:23 0
27 *31:31 *32:23 0.000164282
*RES
1 *185:X *32:4 23 
2 *32:4 *199:A 31.0164 
3 *32:4 *32:23 28.2986 
4 *32:23 *195:B1 38 
5 *32:23 *32:36 19.5571 
6 *32:36 *186:A2 24.5743 
7 *32:36 *32:49 31.2014 
8 *32:49 *187:B 23 
*END

*D_NET *33 0.00199862
*CONN
*I *194:A I *D sky130_fd_sc_hd__xnor2_1
*I *188:B1 I *D sky130_fd_sc_hd__a21oi_1
*I *186:X O *D sky130_fd_sc_hd__o21a_1
*CAP
1 *194:A 0.0005448
2 *188:B1 0.000245221
3 *186:X 0
4 *33:6 0.000790021
5 *188:B1 *188:A2 5.67058e-05
6 *188:B1 *189:A 0
7 *188:B1 *189:B 0.000164282
8 *188:B1 *47:8 0
9 *194:A *194:B 9.91101e-05
10 *194:A *38:16 0
11 *194:A *39:8 0
12 *188:A1 *188:B1 9.84794e-05
13 *32:49 *188:B1 0
14 *32:49 *194:A 0
*RES
1 *186:X *33:6 38 
2 *33:6 *188:B1 43.365 
3 *33:6 *194:A 48.1086 
*END

*D_NET *34 0.00105733
*CONN
*I *188:A2 I *D sky130_fd_sc_hd__a21oi_1
*I *187:Y O *D sky130_fd_sc_hd__nor2_1
*CAP
1 *188:A2 0.000220373
2 *187:Y 0.00015553
3 *34:8 0.000375904
4 *34:8 *189:B 0
5 *34:8 *38:16 6.07611e-06
6 *188:A1 *188:A2 9.16459e-05
7 *188:A1 *34:8 0
8 *188:B1 *188:A2 5.67058e-05
9 *29:10 *34:8 0.000139647
10 *32:36 *34:8 0
11 *32:49 *34:8 1.14452e-05
*RES
1 *187:Y *34:8 40.61 
2 *34:8 *188:A2 42.4329 
*END

*D_NET *35 0.00225326
*CONN
*I *191:A I *D sky130_fd_sc_hd__nor2_1
*I *192:A I *D sky130_fd_sc_hd__and2_1
*I *195:B2 I *D sky130_fd_sc_hd__a221o_1
*I *189:X O *D sky130_fd_sc_hd__and2_1
*CAP
1 *191:A 2.07358e-05
2 *192:A 0
3 *195:B2 3.9316e-05
4 *189:X 0.000177655
5 *35:29 0.000293242
6 *35:6 0.000489478
7 *191:A *192:B 7.39912e-05
8 *191:A *37:6 3.22465e-05
9 *35:6 *189:B 4.9662e-05
10 *35:29 *192:B 5.50106e-05
11 *35:29 *37:6 2.93845e-05
12 *186:A2 *35:6 0.000141954
13 *186:B1 *195:B2 2.57604e-05
14 *186:B1 *35:6 0.00031495
15 *28:8 *195:B2 7.86509e-06
16 *28:8 *35:29 0.000101762
17 *28:16 *195:B2 5.58383e-05
18 *28:16 *35:6 1.1674e-05
19 *28:16 *35:29 5.58806e-05
20 *32:36 *35:6 0.000127821
21 *32:36 *35:29 0.000149032
*RES
1 *189:X *35:6 28.3857 
2 *35:6 *195:B2 24.7659 
3 *35:6 *35:29 35.8829 
4 *35:29 *192:A 23 
5 *35:29 *191:A 24.1186 
*END

*D_NET *36 0.00198762
*CONN
*I *191:B I *D sky130_fd_sc_hd__nor2_1
*I *192:B I *D sky130_fd_sc_hd__and2_1
*I *190:X O *D sky130_fd_sc_hd__a32o_1
*CAP
1 *191:B 0
2 *192:B 0.000183107
3 *190:X 0.000323397
4 *36:12 0.000581166
5 *36:8 0.000721455
6 *192:B *37:6 3.05276e-05
7 *192:B *38:16 1.89688e-05
8 *36:8 *53:20 0
9 *180:A2 *36:8 0
10 *191:A *192:B 7.39912e-05
11 *35:29 *192:B 5.50106e-05
*RES
1 *190:X *36:8 43.075 
2 *36:8 *36:12 22.2914 
3 *36:12 *192:B 27.2257 
4 *36:12 *191:B 23 
*END

*D_NET *37 0.000656586
*CONN
*I *193:A I *D sky130_fd_sc_hd__or2_1
*I *191:Y O *D sky130_fd_sc_hd__nor2_1
*CAP
1 *193:A 0
2 *191:Y 0.000238532
3 *37:6 0.000238532
4 *37:6 *38:6 5.79559e-05
5 *37:6 *38:16 2.94066e-05
6 *191:A *37:6 3.22465e-05
7 *192:B *37:6 3.05276e-05
8 *35:29 *37:6 2.93845e-05
*RES
1 *191:Y *37:6 27.4329 
2 *37:6 *193:A 23 
*END

*D_NET *38 0.000769449
*CONN
*I *193:B I *D sky130_fd_sc_hd__or2_1
*I *195:C1 I *D sky130_fd_sc_hd__a221o_1
*I *192:X O *D sky130_fd_sc_hd__and2_1
*CAP
1 *193:B 0
2 *195:C1 0
3 *192:X 2.38807e-05
4 *38:16 0.000283803
5 *38:6 0.000307684
6 *192:B *38:16 1.89688e-05
7 *194:A *38:16 0
8 *32:36 *38:16 2.04854e-05
9 *32:49 *38:16 2.11887e-05
10 *34:8 *38:16 6.07611e-06
11 *37:6 *38:6 5.79559e-05
12 *37:6 *38:16 2.94066e-05
*RES
1 *192:X *38:6 23.6214 
2 *38:6 *38:16 34.5571 
3 *38:16 *195:C1 23 
4 *38:6 *193:B 23 
*END

*D_NET *39 0.000463695
*CONN
*I *194:B I *D sky130_fd_sc_hd__xnor2_1
*I *193:X O *D sky130_fd_sc_hd__or2_1
*CAP
1 *194:B 4.59536e-05
2 *193:X 0.000136339
3 *39:8 0.000182292
4 *194:A *194:B 9.91101e-05
5 *194:A *39:8 0
*RES
1 *193:X *39:8 40.2579 
2 *39:8 *194:B 39.0979 
*END

*D_NET *40 0.00327487
*CONN
*I *197:B I *D sky130_fd_sc_hd__xnor2_1
*I *196:C I *D sky130_fd_sc_hd__and3_1
*I *195:X O *D sky130_fd_sc_hd__a221o_1
*CAP
1 *197:B 0.000184495
2 *196:C 1.5016e-05
3 *195:X 0.000935226
4 *40:10 0.000358371
5 *40:6 0.00109409
6 *196:C *196:A 1.95448e-05
7 *40:6 *180:A1 3.71251e-05
8 *40:10 *53:20 2.29192e-05
9 *40:10 *57:77 0
10 *180:B1_N *40:6 4.38068e-06
11 *181:A *40:6 4.85864e-05
12 *181:B *40:6 5.70419e-05
13 *197:A *197:B 9.84794e-05
14 *24:8 *197:B 4.58924e-05
15 *28:8 *40:6 0.00035371
*RES
1 *195:X *40:6 36.9614 
2 *40:6 *40:10 17.61 
3 *40:10 *196:C 38.2279 
4 *40:10 *197:B 41.7079 
*END

*D_NET *41 0.000822939
*CONN
*I *199:B I *D sky130_fd_sc_hd__nor2_1
*I *198:Y O *D sky130_fd_sc_hd__a211oi_1
*CAP
1 *199:B 0
2 *198:Y 0.000372478
3 *41:10 0.000372478
4 *41:10 *183:C 4.05309e-05
5 *41:10 *43:75 2.93845e-05
6 *41:10 *55:42 0
7 *198:A1 *41:10 8.06804e-06
*RES
1 *198:Y *41:10 44.09 
2 *41:10 *199:B 38 
*END

*D_NET *42 0.00081678
*CONN
*I *200:A I *D sky130_fd_sc_hd__clkbuf_1
*I *170:X O *D sky130_fd_sc_hd__and2_1
*CAP
1 *200:A 0
2 *170:X 0.000206307
3 *42:8 0.000206307
4 *42:8 *172:A2 8.31686e-05
5 *42:8 *172:B1 5.16606e-05
6 *42:8 *43:27 0.00010018
7 *42:8 *55:36 0.000114152
8 *20:10 *42:8 5.50049e-05
*RES
1 *170:X *42:8 28.4064 
2 *42:8 *200:A 23 
*END

*D_NET *43 0.0060474
*CONN
*I *182:A I *D sky130_fd_sc_hd__and4_1
*I *183:A I *D sky130_fd_sc_hd__nand4_1
*I *184:B2 I *D sky130_fd_sc_hd__a22o_1
*I *172:B2 I *D sky130_fd_sc_hd__a22oi_1
*I *171:A I *D sky130_fd_sc_hd__and4_1
*I *170:B I *D sky130_fd_sc_hd__and2_1
*I *202:X O *D sky130_fd_sc_hd__buf_1
*CAP
1 *182:A 0
2 *183:A 0
3 *184:B2 0
4 *172:B2 0
5 *171:A 0
6 *170:B 0
7 *202:X 0.000368662
8 *43:75 0.000345707
9 *43:56 0.000534246
10 *43:37 0.000237556
11 *43:27 0.000279288
12 *43:20 0.000649539
13 *43:14 0.000632025
14 *43:10 0.00058142
15 *43:10 *52:33 1.83564e-05
16 *43:14 *55:42 5.50106e-05
17 *43:20 *184:A2 0
18 *43:20 *45:10 0.000100061
19 *43:20 *52:33 0.00014428
20 *43:20 *52:50 0.000353544
21 *43:20 *55:36 3.92552e-05
22 *43:20 *55:42 1.22822e-05
23 *43:27 *55:36 0.000185428
24 *43:37 *52:65 2.76611e-06
25 *43:37 *55:20 1.81583e-05
26 *43:56 *52:33 0.000196925
27 *43:56 *55:42 0.00010858
28 *43:75 *57:36 0
29 *173:B_N *43:37 5.92108e-05
30 *175:A *43:20 2.46906e-05
31 *175:B *43:20 0.000225695
32 *185:B1 *43:56 0.000163361
33 *198:A1 *43:75 0.000128347
34 *198:C1 *43:75 7.74193e-05
35 *202:A *43:10 1.94812e-05
36 *19:6 *43:37 1.40958e-05
37 *19:8 *43:37 1.5769e-05
38 *19:27 *43:75 6.58415e-06
39 *20:10 *43:37 0.000136486
40 *22:8 *43:37 0
41 *31:31 *43:75 0.000146822
42 *32:23 *43:75 3.67885e-05
43 *41:10 *43:75 2.93845e-05
44 *42:8 *43:27 0.00010018
*RES
1 *202:X *43:10 43.2614 
2 *43:10 *43:14 15.6214 
3 *43:14 *43:20 13.7543 
4 *43:20 *170:B 23 
5 *43:20 *43:27 2.05071 
6 *43:27 *43:37 33.9771 
7 *43:37 *171:A 23 
8 *43:27 *172:B2 23 
9 *43:14 *184:B2 23 
10 *43:10 *43:56 20.4271 
11 *43:56 *183:A 23 
12 *43:56 *43:75 37.4779 
13 *43:75 *182:A 23 
*END

*D_NET *44 0.000506189
*CONN
*I *210:A I *D sky130_fd_sc_hd__buf_2
*I *201:X O *D sky130_fd_sc_hd__clkbuf_1
*CAP
1 *210:A 0
2 *201:X 0.000253095
3 *44:8 0.000253095
4 *44:8 *55:20 0
*RES
1 *201:X *44:8 27.8057 
2 *44:8 *210:A 23 
*END

*D_NET *45 0.000499182
*CONN
*I *211:A I *D sky130_fd_sc_hd__buf_2
*I *175:Y O *D sky130_fd_sc_hd__nor2_1
*CAP
1 *211:A 0
2 *175:Y 0.00019956
3 *45:10 0.00019956
4 *43:20 *45:10 0.000100061
*RES
1 *175:Y *45:10 41.3557 
2 *45:10 *211:A 38 
*END

*D_NET *46 0.000896586
*CONN
*I *212:A I *D sky130_fd_sc_hd__buf_2
*I *199:Y O *D sky130_fd_sc_hd__nor2_1
*CAP
1 *212:A 0
2 *199:Y 0.000448293
3 *46:8 0.000448293
*RES
1 *199:Y *46:8 31.265 
2 *46:8 *212:A 23 
*END

*D_NET *47 0.00124598
*CONN
*I *213:A I *D sky130_fd_sc_hd__buf_2
*I *188:Y O *D sky130_fd_sc_hd__a21oi_1
*CAP
1 *213:A 0.00038671
2 *188:Y 0.000120154
3 *47:8 0.000506864
4 *47:8 *189:A 0.000139657
5 *47:8 *189:B 0
6 *47:8 *52:10 9.26005e-05
7 *188:B1 *47:8 0
*RES
1 *188:Y *47:8 40.9621 
2 *47:8 *213:A 44.3593 
*END

*D_NET *48 0.000419504
*CONN
*I *214:A I *D sky130_fd_sc_hd__buf_2
*I *194:Y O *D sky130_fd_sc_hd__xnor2_1
*CAP
1 *214:A 6.80978e-05
2 *194:Y 0.000141654
3 *48:8 0.000209752
*RES
1 *194:Y *48:8 40.61 
2 *48:8 *214:A 39.0979 
*END

*D_NET *49 0.000727205
*CONN
*I *215:A I *D sky130_fd_sc_hd__buf_2
*I *197:Y O *D sky130_fd_sc_hd__xnor2_1
*CAP
1 *215:A 0.000221948
2 *197:Y 0.000141654
3 *49:8 0.000363602
4 P[6] *49:8 0
*RES
1 *197:Y *49:8 40.61 
2 *49:8 *215:A 41.9564 
*END

*D_NET *50 0.000586748
*CONN
*I *216:A I *D sky130_fd_sc_hd__buf_2
*I *196:X O *D sky130_fd_sc_hd__and3_1
*CAP
1 *216:A 0
2 *196:X 0.000206926
3 *50:10 0.000206926
4 *50:10 *196:A 5.67058e-05
5 *50:10 *53:14 7.4416e-05
6 *50:10 *57:77 4.17736e-05
*RES
1 *196:X *50:10 27.4743 
2 *50:10 *216:A 23 
*END

*D_NET *51 0.00316679
*CONN
*I *178:B I *D sky130_fd_sc_hd__and3_1
*I *179:A1 I *D sky130_fd_sc_hd__a22o_1
*I *171:C I *D sky130_fd_sc_hd__and4_1
*I *172:A2 I *D sky130_fd_sc_hd__a22oi_1
*I *203:X O *D sky130_fd_sc_hd__buf_1
*CAP
1 *178:B 0
2 *179:A1 1.92397e-05
3 *171:C 0
4 *172:A2 9.59336e-05
5 *203:X 0.000304162
6 *51:22 0.000451995
7 *51:16 0.000507366
8 *51:12 0.000132066
9 *51:10 0.000304162
10 *172:A2 *172:B1 0.00019556
11 *172:A2 *55:30 3.98859e-05
12 *179:A1 *179:B2 4.00259e-06
13 *179:A1 *57:62 1.14154e-05
14 *51:10 *179:B1 0
15 *51:10 *56:14 0.000268074
16 *51:10 *57:77 8.62783e-05
17 *51:16 *178:A 8.1796e-05
18 *51:16 *55:86 2.93845e-05
19 *51:16 *57:62 2.61526e-05
20 *51:22 *172:B1 1.14452e-05
21 *51:22 *52:65 0
22 *51:22 *56:35 0.000207968
23 *51:22 *57:54 5.3304e-05
24 *51:22 *57:62 2.02872e-05
25 *20:10 *51:22 0
26 *25:10 *51:16 9.91798e-05
27 *25:10 *51:22 4.67488e-05
28 *26:10 *51:22 8.72173e-05
29 *42:8 *172:A2 8.31686e-05
*RES
1 *203:X *51:10 42.6814 
2 *51:10 *51:12 15 
3 *51:12 *51:16 3.85286 
4 *51:16 *51:22 22.9336 
5 *51:22 *172:A2 40.8171 
6 *51:22 *171:C 38 
7 *51:16 *179:A1 23.4971 
8 *51:12 *178:B 23 
*END

*D_NET *52 0.0100486
*CONN
*I *189:A I *D sky130_fd_sc_hd__and2_1
*I *182:C I *D sky130_fd_sc_hd__and4_1
*I *174:A2_N I *D sky130_fd_sc_hd__o2bb2a_1
*I *190:A2 I *D sky130_fd_sc_hd__a32o_1
*I *176:B I *D sky130_fd_sc_hd__nand2_1
*I *173:D I *D sky130_fd_sc_hd__and4bb_1
*I *184:A2 I *D sky130_fd_sc_hd__a22o_1
*I *183:C I *D sky130_fd_sc_hd__nand4_1
*I *204:X O *D sky130_fd_sc_hd__clkbuf_2
*CAP
1 *189:A 0.000104001
2 *182:C 6.00969e-05
3 *174:A2_N 0
4 *190:A2 4.09788e-05
5 *176:B 0.000300777
6 *173:D 0
7 *184:A2 2.32689e-05
8 *183:C 0.000385956
9 *204:X 0.000321894
10 *52:65 0.000956742
11 *52:57 0.000923222
12 *52:50 0.000659861
13 *52:33 0.000757124
14 *52:25 0.000691795
15 *52:10 0.000810475
16 *52:8 0.000600947
17 *176:B *176:A 5.43894e-06
18 *176:B *190:A1 0
19 *176:B *190:B2 1.5769e-05
20 *182:C *182:B 0.00017458
21 *183:C *189:B 0
22 *190:A2 *190:A1 3.91386e-05
23 *52:10 *189:B 0
24 *52:25 *182:B 0.000181125
25 *52:25 *57:6 0.000150242
26 *52:25 *57:30 4.5051e-05
27 *52:33 *55:36 2.47127e-05
28 *52:33 *55:42 5.41385e-05
29 *52:33 *57:36 0.000555034
30 *52:50 *55:36 2.46906e-05
31 *52:57 *173:C 0.000123729
32 *173:B_N *52:57 0.000180218
33 *175:A *52:50 0.000320308
34 *185:A1 *52:50 6.17437e-06
35 *185:B1 *52:33 2.82307e-05
36 *188:A1 *52:33 3.63546e-05
37 *188:B1 *189:A 0
38 *190:A3 *176:B 0.000265439
39 *190:A3 *190:A2 4.37033e-05
40 *19:12 *52:50 5.80851e-05
41 *19:12 *52:57 1.54565e-05
42 *20:10 *52:65 0
43 *22:8 *52:65 5.21127e-05
44 *25:10 *52:65 0
45 *26:10 *52:65 0
46 *29:10 *182:C 2.30292e-05
47 *41:10 *183:C 4.05309e-05
48 *43:10 *52:33 1.83564e-05
49 *43:20 *184:A2 0
50 *43:20 *52:33 0.00014428
51 *43:20 *52:50 0.000353544
52 *43:37 *52:65 2.76611e-06
53 *43:56 *52:33 0.000196925
54 *47:8 *189:A 0.000139657
55 *47:8 *52:10 9.26005e-05
56 *51:22 *52:65 0
*RES
1 *204:X *52:8 43.3857 
2 *52:8 *52:10 3.66643 
3 *52:10 *183:C 43.3857 
4 *52:10 *52:25 20.8621 
5 *52:25 *52:33 40.1707 
6 *52:33 *184:A2 23.4971 
7 *52:33 *52:50 38.265 
8 *52:50 *173:D 23 
9 *52:50 *52:57 4.90929 
10 *52:57 *52:65 41.3514 
11 *52:65 *176:B 28.5307 
12 *52:65 *190:A2 24.595 
13 *52:57 *174:A2_N 23 
14 *52:25 *182:C 25.0507 
15 *52:8 *189:A 40.2579 
*END

*D_NET *53 0.00331135
*CONN
*I *177:B I *D sky130_fd_sc_hd__nand2_1
*I *196:B I *D sky130_fd_sc_hd__and3_1
*I *180:A1 I *D sky130_fd_sc_hd__a21bo_1
*I *190:B2 I *D sky130_fd_sc_hd__a32o_1
*I *179:B1 I *D sky130_fd_sc_hd__a22o_1
*I *205:X O *D sky130_fd_sc_hd__buf_1
*CAP
1 *177:B 5.02187e-05
2 *196:B 0
3 *180:A1 2.71027e-05
4 *190:B2 5.17395e-05
5 *179:B1 0.000140432
6 *205:X 0.000255033
7 *53:26 0.000372005
8 *53:20 0.000450007
9 *53:14 0.000417009
10 *53:10 0.000479189
11 *177:B *57:77 7.70737e-05
12 *179:B1 *56:35 0.000191157
13 *179:B1 *57:77 0
14 *190:B2 *190:A1 5.3304e-05
15 *190:B2 *56:16 5.3304e-05
16 *53:10 *57:77 8.62783e-05
17 *53:14 *196:A 3.17634e-05
18 *53:20 *196:A 3.71251e-05
19 *53:20 *57:77 0
20 *53:26 *57:77 0
21 P[7] *177:B 0
22 *176:B *190:B2 1.5769e-05
23 *180:A2 *53:26 1.69668e-05
24 *180:B1_N *53:26 0.000108681
25 *181:A *180:A1 9.84794e-05
26 *190:A3 *190:B2 6.17437e-06
27 *23:8 *53:26 0.000108681
28 *26:10 *179:B1 1.12487e-05
29 *26:10 *53:26 3.81486e-05
30 *36:8 *53:20 0
31 *40:6 *180:A1 3.71251e-05
32 *40:10 *53:20 2.29192e-05
33 *50:10 *53:14 7.4416e-05
34 *51:10 *179:B1 0
*RES
1 *205:X *53:10 41.7286 
2 *53:10 *53:14 17.5271 
3 *53:14 *53:20 18.8321 
4 *53:20 *53:26 3.72857 
5 *53:26 *179:B1 40.9621 
6 *53:26 *190:B2 39.0979 
7 *53:20 *180:A1 39.0979 
8 *53:14 *196:B 23 
9 *53:10 *177:B 39.2014 
*END

*D_NET *54 0.001838
*CONN
*I *174:A1_N I *D sky130_fd_sc_hd__o2bb2a_1
*I *173:C I *D sky130_fd_sc_hd__and4bb_1
*I *170:A I *D sky130_fd_sc_hd__and2_1
*I *206:X O *D sky130_fd_sc_hd__clkbuf_1
*CAP
1 *174:A1_N 3.20987e-05
2 *173:C 4.78699e-05
3 *170:A 0
4 *206:X 0.000248751
5 *54:21 0.000236539
6 *54:10 0.000405322
7 *173:B_N *173:C 5.50049e-05
8 *173:B_N *174:A1_N 9.90052e-05
9 *206:A *54:10 1.94812e-05
10 *19:8 *173:C 4.17736e-05
11 *19:8 *174:A1_N 0.000111443
12 *19:12 *173:C 0.000231227
13 *20:10 *54:10 0