*SPEF "ieee 1481-1999"
*DESIGN "SARSA_VENTAJA_e4"
*DATE "09:49:36 Friday September 12, 2025"
*VENDOR "The OpenROAD Project"
*PROGRAM "OpenROAD"
*VERSION "edf00dff99f6c40d67a30c0e22a8191c5d2ed9d6"
*DESIGN_FLOW "NAME_SCOPE LOCAL" "PIN_CAP NONE"
*DIVIDER /
*DELIMITER :
*BUS_DELIMITER []
*T_UNIT 1 NS
*C_UNIT 1 PF
*R_UNIT 1 OHM
*L_UNIT 1 HENRY

*NAME_MAP
*1 A[0]
*2 A[1]
*3 B[0]
*4 B[1]
*5 P[0]
*6 P[1]
*7 P[2]
*8 P[3]
*11 _0_
*12 _1_
*13 net1
*14 net2
*15 net3
*16 net4
*17 net5
*18 net6
*19 net7
*20 net8
*21 FILLER_0_15
*22 FILLER_0_27
*23 FILLER_0_29
*24 FILLER_0_3
*25 FILLER_0_41
*26 FILLER_0_53
*27 FILLER_0_57
*28 FILLER_0_69
*29 FILLER_1_15
*30 FILLER_1_27
*31 FILLER_1_3
*32 FILLER_1_39
*33 FILLER_1_51
*34 FILLER_1_55
*35 FILLER_1_57
*36 FILLER_1_69
*37 FILLER_2_18
*38 FILLER_2_26
*39 FILLER_2_29
*40 FILLER_2_41
*41 FILLER_2_53
*42 FILLER_2_6
*43 FILLER_2_65
*44 FILLER_2_77
*45 FILLER_3_15
*46 FILLER_3_27
*47 FILLER_3_3
*48 FILLER_3_39
*49 FILLER_3_51
*50 FILLER_3_55
*51 FILLER_3_57
*52 FILLER_3_69
*53 FILLER_4_21
*54 FILLER_4_27
*55 FILLER_4_29
*56 FILLER_4_41
*57 FILLER_4_53
*58 FILLER_4_6
*59 FILLER_4_65
*60 FILLER_4_77
*61 FILLER_5_27
*62 FILLER_5_39
*63 FILLER_5_51
*64 FILLER_5_55
*65 FILLER_5_57
*66 FILLER_5_69
*67 FILLER_5_7
*68 FILLER_6_17
*69 FILLER_6_25
*70 FILLER_6_29
*71 FILLER_6_41
*72 FILLER_6_53
*73 FILLER_6_65
*74 FILLER_6_7
*75 FILLER_6_71
*76 FILLER_7_14
*77 FILLER_7_20
*78 FILLER_7_32
*79 FILLER_7_44
*80 FILLER_7_57
*81 FILLER_7_6
*82 FILLER_7_69
*83 FILLER_8_15
*84 FILLER_8_27
*85 FILLER_8_29
*86 FILLER_8_3
*87 FILLER_8_41
*88 FILLER_8_53
*89 FILLER_8_65
*90 FILLER_8_77
*91 FILLER_9_18
*92 FILLER_9_26
*93 FILLER_9_29
*94 FILLER_9_41
*95 FILLER_9_53
*96 FILLER_9_57
*97 FILLER_9_6
*98 FILLER_9_69
*99 PHY_EDGE_ROW_0_Left_10
*100 PHY_EDGE_ROW_0_Right_0
*101 PHY_EDGE_ROW_1_Left_11
*102 PHY_EDGE_ROW_1_Right_1
*103 PHY_EDGE_ROW_2_Left_12
*104 PHY_EDGE_ROW_2_Right_2
*105 PHY_EDGE_ROW_3_Left_13
*106 PHY_EDGE_ROW_3_Right_3
*107 PHY_EDGE_ROW_4_Left_14
*108 PHY_EDGE_ROW_4_Right_4
*109 PHY_EDGE_ROW_5_Left_15
*110 PHY_EDGE_ROW_5_Right_5
*111 PHY_EDGE_ROW_6_Left_16
*112 PHY_EDGE_ROW_6_Right_6
*113 PHY_EDGE_ROW_7_Left_17
*114 PHY_EDGE_ROW_7_Right_7
*115 PHY_EDGE_ROW_8_Left_18
*116 PHY_EDGE_ROW_8_Right_8
*117 PHY_EDGE_ROW_9_Left_19
*118 PHY_EDGE_ROW_9_Right_9
*119 TAP_TAPCELL_ROW_0_20
*120 TAP_TAPCELL_ROW_0_21
*121 TAP_TAPCELL_ROW_1_22
*122 TAP_TAPCELL_ROW_2_23
*123 TAP_TAPCELL_ROW_3_24
*124 TAP_TAPCELL_ROW_4_25
*125 TAP_TAPCELL_ROW_5_26
*126 TAP_TAPCELL_ROW_6_27
*127 TAP_TAPCELL_ROW_7_28
*128 TAP_TAPCELL_ROW_8_29
*129 TAP_TAPCELL_ROW_9_30
*130 TAP_TAPCELL_ROW_9_31
*131 _2_
*132 _3_
*133 _4_
*134 _5_
*135 _6_
*136 _7_
*137 input1
*138 input2
*139 input3
*140 input4
*141 output5
*142 output6
*143 output7
*144 output8

*PORTS
A[0] I
A[1] I
B[0] I
B[1] I
P[0] O
P[1] O
P[2] O
P[3] O

*D_NET *1 0.000572527
*CONN
*P A[0] I
*I *137:A I *D sky130_fd_sc_hd__clkbuf_1
*CAP
1 A[0] 0.000272764
2 *137:A 0.000272764
3 *137:A *139:A 2.69997e-05
*RES
1 A[0] *137:A 7.0893 
*END

*D_NET *2 0.000637072
*CONN
*P A[1] I
*I *138:A I *D sky130_fd_sc_hd__buf_1
*CAP
1 A[1] 0.000304283
2 *138:A 0.000304283
3 *138:A P[3] 0
4 *138:A *140:A 2.85068e-05
*RES
1 A[1] *138:A 6.63177 
*END

*D_NET *3 0.000651011
*CONN
*P B[0] I
*I *139:A I *D sky130_fd_sc_hd__buf_1
*CAP
1 B[0] 0.000297188
2 *139:A 0.000297188
3 *139:A P[0] 2.96366e-05
4 *139:A *13:12 0
5 *137:A *139:A 2.69997e-05
*RES
1 B[0] *139:A 7.8543 
*END

*D_NET *4 0.000535548
*CONN
*P B[1] I
*I *140:A I *D sky130_fd_sc_hd__clkbuf_1
*CAP
1 B[1] 0.000242276
2 *140:A 0.000242276
3 *140:A P[3] 2.24901e-05
4 *138:A *140:A 2.85068e-05
*RES
1 B[1] *140:A 6.8343 
*END

*D_NET *5 0.000661148
*CONN
*P P[0] O
*I *141:X O *D sky130_fd_sc_hd__buf_2
*CAP
1 P[0] 0.000301502
2 *141:X 0.000301502
3 P[0] P[3] 2.85068e-05
4 *139:A P[0] 2.96366e-05
*RES
1 *141:X P[0] 7.1793 
*END

*D_NET *6 0.000462966
*CONN
*P P[1] O
*I *142:X O *D sky130_fd_sc_hd__buf_2
*CAP
1 P[1] 0.000185209
2 *142:X 0.000185209
3 P[1] P[2] 9.25475e-05
*RES
1 *142:X P[1] 4.90503 
*END

*D_NET *7 0.000527701
*CONN
*P P[2] O
*I *143:X O *D sky130_fd_sc_hd__buf_2
*CAP
1 P[2] 0.000217577
2 *143:X 0.000217577
3 P[1] P[2] 9.25475e-05
*RES
1 *143:X P[2] 5.41503 
*END

*D_NET *8 0.000479329
*CONN
*P P[3] O
*I *144:X O *D sky130_fd_sc_hd__buf_2
*CAP
1 P[3] 0.000209373
2 *144:X 0.000209373
3 P[3] *141:A 9.58678e-06
4 P[0] P[3] 2.85068e-05
5 *138:A P[3] 0
6 *140:A P[3] 2.24901e-05
*RES
1 *144:X P[3] 4.90503 
*END

*D_NET *11 0.000605672
*CONN
*I *136:C I *D sky130_fd_sc_hd__and3_1
*I *132:Y O *D sky130_fd_sc_hd__nand2_1
*CAP
1 *136:C 0.000284724
2 *132:Y 0.000284724
3 *136:C *132:A 1.7386e-05
4 *136:C *133:D 0
5 *136:C *136:B 1.4399e-05
6 *136:C *16:12 4.43871e-06
*RES
1 *132:Y *136:C 11.085 
*END

*D_NET *12 0.000418556
*CONN
*I *135:A2 I *D sky130_fd_sc_hd__a21o_1
*I *131:Y O *D sky130_fd_sc_hd__inv_2
*CAP
1 *135:A2 0.000137384
2 *131:Y 0.000137384
3 *135:A2 *14:12 5.71917e-05
4 *135:A2 *16:12 8.65961e-05
*RES
1 *131:Y *135:A2 9.63 
*END

*D_NET *13 0.00178932
*CONN
*I *132:B I *D sky130_fd_sc_hd__nand2_1
*I *133:D I *D sky130_fd_sc_hd__and4_1
*I *137:X O *D sky130_fd_sc_hd__clkbuf_1
*CAP
1 *132:B 1.85662e-05
2 *133:D 8.70287e-05
3 *137:X 0.000400833
4 *13:12 0.000506428
5 *132:B *132:A 3.83041e-05
6 *133:D *135:A1 3.09233e-05
7 *133:D *136:B 4.31921e-05
8 *133:D *15:12 0.000186099
9 *13:12 *132:A 4.82919e-05
10 *13:12 *15:8 0.000429658
11 *136:C *133:D 0
12 *139:A *13:12 0
*RES
1 *137:X *13:12 13.265 
2 *13:12 *133:D 8 
3 *13:12 *132:B 2.05 
*END

*D_NET *14 0.00250456
*CONN
*I *131:A I *D sky130_fd_sc_hd__inv_2
*I *133:C I *D sky130_fd_sc_hd__and4_1
*I *136:B I *D sky130_fd_sc_hd__and3_1
*I *138:X O *D sky130_fd_sc_hd__buf_1
*CAP
1 *131:A 0
2 *133:C 3.72342e-05
3 *136:B 0.000227077
4 *138:X 0.000661796
5 *14:12 0.000407451
6 *14:10 0.000804936
7 *133:C *133:B 1.83756e-05
8 *136:B *133:B 5.83121e-06
9 *136:B *135:A1 2.03321e-05
10 *136:B *136:A 1.7386e-05
11 *136:B *16:12 1.70935e-05
12 *14:12 *135:A1 2.25075e-05
13 *14:12 *16:12 0.000149757
14 *14:12 *20:12 0
15 *133:D *136:B 4.31921e-05
16 *135:A2 *14:12 5.71917e-05
17 *136:C *136:B 1.4399e-05
*RES
1 *138:X *14:10 11.955 
2 *14:10 *14:12 3.675 
3 *14:12 *136:B 6.81 
4 *14:12 *133:C 4.05 
5 *14:10 *131:A 3.6 
*END

*D_NET *15 0.00214818
*CONN
*I *132:A I *D sky130_fd_sc_hd__nand2_1
*I *135:A1 I *D sky130_fd_sc_hd__a21o_1
*I *133:B I *D sky130_fd_sc_hd__and4_1
*I *139:X O *D sky130_fd_sc_hd__buf_1
*CAP
1 *132:A 9.92459e-05
2 *135:A1 9.92374e-05
3 *133:B 9.88534e-05
4 *139:X 0.000217107
5 *15:12 0.000305411
6 *15:8 0.000423673
7 *135:A1 *134:A 4.82863e-05
8 *135:A1 *141:A 0
9 *135:A1 *20:12 3.86607e-05
10 *132:B *132:A 3.83041e-05
11 *133:C *133:B 1.83756e-05
12 *133:D *135:A1 3.09233e-05
13 *133:D *15:12 0.000186099
14 *136:B *133:B 5.83121e-06
15 *136:B *135:A1 2.03321e-05
16 *136:C *132:A 1.7386e-05
17 *13:12 *132:A 4.82919e-05
18 *13:12 *15:8 0.000429658
19 *14:12 *135:A1 2.25075e-05
*RES
1 *139:X *15:8 5.86 
2 *15:8 *15:12 4.4 
3 *15:12 *133:B 5.1 
4 *15:12 *135:A1 5.685 
5 *15:8 *132:A 3.445 
*END

*D_NET *16 0.00142597
*CONN
*I *136:A I *D sky130_fd_sc_hd__and3_1
*I *133:A I *D sky130_fd_sc_hd__and4_1
*I *140:X O *D sky130_fd_sc_hd__clkbuf_1
*CAP
1 *136:A 2.62713e-05
2 *133:A 0
3 *140:X 0.000549078
4 *16:12 0.000575349
5 *135:A2 *16:12 8.65961e-05
6 *136:B *136:A 1.7386e-05
7 *136:B *16:12 1.70935e-05
8 *136:C *16:12 4.43871e-06
9 *14:12 *16:12 0.000149757
*RES
1 *140:X *16:12 14.645 
2 *16:12 *133:A 1.6 
3 *16:12 *136:A 2.05 
*END

*D_NET *17 0.000566527
*CONN
*I *141:A I *D sky130_fd_sc_hd__buf_2
*I *135:X O *D sky130_fd_sc_hd__a21o_1
*CAP
1 *141:A 0.00021865
2 *135:X 0.00021865
3 *141:A *144:A 0.00011964
4 *141:A *20:12 0
5 P[3] *141:A 9.58678e-06
6 *135:A1 *141:A 0
*RES
1 *135:X *141:A 10.41 
*END

*D_NET *18 0.000380129
*CONN
*I *142:A I *D sky130_fd_sc_hd__buf_2
*I *134:Y O *D sky130_fd_sc_hd__inv_2
*CAP
1 *142:A 0.000190064
2 *134:Y 0.000190064
*RES
1 *134:Y *142:A 6.065 
*END

*D_NET *19 0.00308431
*CONN
*I *143:A I *D sky130_fd_sc_hd__buf_2
*I *136:X O *D sky130_fd_sc_hd__and3_1
*CAP
1 *143:A 0.00154216
2 *136:X 0.00154216
*RES
1 *136:X *143:A 21.62 
*END

*D_NET *20 0.00351363
*CONN
*I *134:A I *D sky130_fd_sc_hd__inv_2
*I *135:B1 I *D sky130_fd_sc_hd__a21o_1
*I *144:A I *D sky130_fd_sc_hd__buf_2
*I *133:X O *D sky130_fd_sc_hd__and4_1
*CAP
1 *134:A 0.00137001
2 *135:B1 0
3 *144:A 0.000119851
4 *133:X 0.000109081
5 *20:16 0.000174435
6 *20:12 0.00153367
7 *135:A1 *134:A 4.82863e-05
8 *135:A1 *20:12 3.86607e-05
9 *141:A *144:A 0.00011964
10 *141:A *20:12 0
11 *14:12 *20:12 0
*RES
1 *133:X *20:12 7.175 
2 *20:12 *20:16 0.81 
3 *20:16 *144:A 4.12 
4 *20:16 *135:B1 1.6 
5 *20:12 *134:A 20.8 
*END
