*SPEF "ieee 1481-1999"
*DESIGN "mult8_2bits_1op_e17683"
*DATE "15:10:16 Tuesday September 16, 2025"
*VENDOR "The OpenROAD Project"
*PROGRAM "OpenROAD"
*VERSION "edf00dff99f6c40d67a30c0e22a8191c5d2ed9d6"
*DESIGN_FLOW "NAME_SCOPE LOCAL" "PIN_CAP NONE"
*DIVIDER /
*DELIMITER :
*BUS_DELIMITER []
*T_UNIT 1 NS
*C_UNIT 1 PF
*R_UNIT 1 OHM
*L_UNIT 1 HENRY

*NAME_MAP
*1 A[0]
*2 A[1]
*3 A[2]
*4 A[3]
*5 A[4]
*6 A[5]
*7 A[6]
*8 A[7]
*9 B[0]
*10 B[1]
*11 B[2]
*12 B[3]
*13 B[4]
*14 B[5]
*15 B[6]
*16 B[7]
*17 P[0]
*18 P[10]
*19 P[11]
*20 P[12]
*21 P[13]
*22 P[14]
*23 P[15]
*24 P[1]
*25 P[2]
*26 P[3]
*27 P[4]
*28 P[5]
*29 P[6]
*30 P[7]
*31 P[8]
*32 P[9]
*35 _000_
*36 _001_
*37 _002_
*38 _003_
*39 _004_
*40 _005_
*41 _006_
*42 _007_
*43 _008_
*44 _009_
*45 _010_
*46 _011_
*47 _012_
*48 _013_
*49 _014_
*50 _015_
*51 _016_
*52 _017_
*53 _018_
*54 _019_
*55 _020_
*56 _021_
*57 _022_
*58 _023_
*59 _024_
*60 _025_
*61 _026_
*62 _027_
*63 _028_
*64 _029_
*65 _030_
*66 _031_
*67 _032_
*68 _033_
*69 _034_
*70 _035_
*71 _036_
*72 _037_
*73 _038_
*74 _039_
*75 _040_
*76 _041_
*77 _042_
*78 _043_
*79 _044_
*80 _045_
*81 _046_
*82 _047_
*83 _048_
*84 _049_
*85 _050_
*86 _051_
*87 _052_
*88 _053_
*89 _054_
*90 _055_
*91 _056_
*92 _057_
*93 _058_
*94 _059_
*95 _060_
*96 _061_
*97 _062_
*98 _063_
*99 _064_
*100 _065_
*101 _066_
*102 _067_
*103 _068_
*104 _069_
*105 _070_
*106 _071_
*107 _072_
*108 _073_
*109 _074_
*110 _075_
*111 _076_
*112 _077_
*113 _078_
*114 _079_
*115 _080_
*116 _081_
*117 _082_
*118 _083_
*119 _084_
*120 _085_
*121 _086_
*122 _087_
*123 _088_
*124 _089_
*125 _090_
*126 _091_
*127 _092_
*128 _093_
*129 _094_
*130 _095_
*131 _096_
*132 _097_
*133 _098_
*134 _099_
*135 _100_
*136 _101_
*137 _102_
*138 _103_
*139 _104_
*140 _105_
*141 _106_
*142 _107_
*143 _108_
*144 _109_
*145 _110_
*146 _111_
*147 _112_
*148 _113_
*149 _114_
*150 _115_
*151 _116_
*152 _117_
*153 _118_
*154 _119_
*155 _120_
*156 _121_
*157 _122_
*158 _123_
*159 _124_
*160 _125_
*161 _126_
*162 _127_
*163 _128_
*164 _129_
*165 _130_
*166 _131_
*167 _132_
*168 _133_
*169 _134_
*170 _135_
*171 _136_
*172 _137_
*173 _138_
*174 _139_
*175 _140_
*176 _141_
*177 _142_
*178 _143_
*179 _144_
*180 _145_
*181 _146_
*182 _147_
*183 _148_
*184 _149_
*185 _150_
*186 _151_
*187 _152_
*188 _153_
*189 _154_
*190 _155_
*191 _156_
*192 _157_
*193 _158_
*194 _159_
*195 _160_
*196 _161_
*197 _162_
*198 _163_
*199 _164_
*200 _165_
*201 _166_
*202 _167_
*203 _168_
*204 _169_
*205 _170_
*206 _171_
*207 _172_
*208 _173_
*209 _174_
*210 _175_
*211 _176_
*212 _177_
*213 _178_
*214 _179_
*215 _180_
*216 _181_
*217 _182_
*218 _183_
*219 _184_
*220 _185_
*221 _186_
*222 _187_
*223 _188_
*224 _189_
*225 _190_
*226 _191_
*227 _192_
*228 _193_
*229 _194_
*230 _195_
*231 _196_
*232 _197_
*233 _198_
*234 _199_
*235 _200_
*236 _201_
*237 _202_
*238 _203_
*239 _204_
*240 _205_
*241 _206_
*242 _207_
*243 _208_
*244 _209_
*245 _210_
*246 _211_
*247 _212_
*248 _213_
*249 _214_
*250 _215_
*251 _216_
*252 _217_
*253 _218_
*254 _219_
*255 _220_
*256 _221_
*257 _222_
*258 _223_
*259 _224_
*260 _225_
*261 _226_
*262 _227_
*263 _228_
*264 mul_ll\.mul_ll\.pp1
*265 mul_ll\.mul_ll\.pp2
*266 net1
*267 net10
*268 net11
*269 net12
*270 net13
*271 net14
*272 net15
*273 net16
*274 net17
*275 net18
*276 net19
*277 net2
*278 net20
*279 net21
*280 net22
*281 net23
*282 net24
*283 net25
*284 net26
*285 net27
*286 net28
*287 net29
*288 net3
*289 net30
*290 net31
*291 net32
*292 net33
*293 net34
*294 net35
*295 net36
*296 net37
*297 net38
*298 net39
*299 net4
*300 net40
*301 net41
*302 net42
*303 net43
*304 net44
*305 net45
*306 net46
*307 net47
*308 net48
*309 net49
*310 net5
*311 net50
*312 net51
*313 net52
*314 net53
*315 net54
*316 net55
*317 net56
*318 net57
*319 net58
*320 net59
*321 net6
*322 net60
*323 net61
*324 net62
*325 net63
*326 net64
*327 net65
*328 net66
*329 net67
*330 net68
*331 net69
*332 net7
*333 net70
*334 net71
*335 net72
*336 net73
*337 net74
*338 net75
*339 net76
*340 net77
*341 net78
*342 net79
*343 net8
*344 net82
*345 net83
*346 net9
*347 FILLER_0_109
*348 FILLER_0_113
*349 FILLER_0_125
*350 FILLER_0_133
*351 FILLER_0_139
*352 FILLER_0_15
*353 FILLER_0_150
*354 FILLER_0_162
*355 FILLER_0_169
*356 FILLER_0_183
*357 FILLER_0_189
*358 FILLER_0_197
*359 FILLER_0_209
*360 FILLER_0_221
*361 FILLER_0_225
*362 FILLER_0_233
*363 FILLER_0_238
*364 FILLER_0_250
*365 FILLER_0_253
*366 FILLER_0_265
*367 FILLER_0_27
*368 FILLER_0_277
*369 FILLER_0_281
*370 FILLER_0_29
*371 FILLER_0_293
*372 FILLER_0_3
*373 FILLER_0_305
*374 FILLER_0_309
*375 FILLER_0_321
*376 FILLER_0_333
*377 FILLER_0_337
*378 FILLER_0_349
*379 FILLER_0_361
*380 FILLER_0_365
*381 FILLER_0_377
*382 FILLER_0_389
*383 FILLER_0_393
*384 FILLER_0_405
*385 FILLER_0_41
*386 FILLER_0_53
*387 FILLER_0_57
*388 FILLER_0_69
*389 FILLER_0_81
*390 FILLER_0_85
*391 FILLER_0_97
*392 FILLER_10_109
*393 FILLER_10_121
*394 FILLER_10_148
*395 FILLER_10_15
*396 FILLER_10_160
*397 FILLER_10_172
*398 FILLER_10_184
*399 FILLER_10_197
*400 FILLER_10_209
*401 FILLER_10_221
*402 FILLER_10_229
*403 FILLER_10_241
*404 FILLER_10_249
*405 FILLER_10_253
*406 FILLER_10_265
*407 FILLER_10_27
*408 FILLER_10_277
*409 FILLER_10_289
*410 FILLER_10_29
*411 FILLER_10_3
*412 FILLER_10_301
*413 FILLER_10_307
*414 FILLER_10_309
*415 FILLER_10_321
*416 FILLER_10_333
*417 FILLER_10_345
*418 FILLER_10_357
*419 FILLER_10_363
*420 FILLER_10_365
*421 FILLER_10_377
*422 FILLER_10_389
*423 FILLER_10_401
*424 FILLER_10_41
*425 FILLER_10_53
*426 FILLER_10_65
*427 FILLER_10_77
*428 FILLER_10_83
*429 FILLER_10_85
*430 FILLER_10_97
*431 FILLER_11_105
*432 FILLER_11_111
*433 FILLER_11_113
*434 FILLER_11_125
*435 FILLER_11_15
*436 FILLER_11_156
*437 FILLER_11_169
*438 FILLER_11_189
*439 FILLER_11_216
*440 FILLER_11_233
*441 FILLER_11_245
*442 FILLER_11_257
*443 FILLER_11_269
*444 FILLER_11_27
*445 FILLER_11_277
*446 FILLER_11_281
*447 FILLER_11_293
*448 FILLER_11_3
*449 FILLER_11_305
*450 FILLER_11_317
*451 FILLER_11_329
*452 FILLER_11_335
*453 FILLER_11_337
*454 FILLER_11_349
*455 FILLER_11_361
*456 FILLER_11_373
*457 FILLER_11_385
*458 FILLER_11_39
*459 FILLER_11_391
*460 FILLER_11_393
*461 FILLER_11_405
*462 FILLER_11_51
*463 FILLER_11_55
*464 FILLER_11_57
*465 FILLER_11_69
*466 FILLER_11_81
*467 FILLER_11_93
*468 FILLER_12_109
*469 FILLER_12_121
*470 FILLER_12_133
*471 FILLER_12_139
*472 FILLER_12_15
*473 FILLER_12_151
*474 FILLER_12_163
*475 FILLER_12_175
*476 FILLER_12_181
*477 FILLER_12_193
*478 FILLER_12_210
*479 FILLER_12_218
*480 FILLER_12_226
*481 FILLER_12_237
*482 FILLER_12_249
*483 FILLER_12_253
*484 FILLER_12_265
*485 FILLER_12_27
*486 FILLER_12_277
*487 FILLER_12_289
*488 FILLER_12_29
*489 FILLER_12_3
*490 FILLER_12_301
*491 FILLER_12_307
*492 FILLER_12_309
*493 FILLER_12_321
*494 FILLER_12_333
*495 FILLER_12_345
*496 FILLER_12_357
*497 FILLER_12_363
*498 FILLER_12_365
*499 FILLER_12_377
*500 FILLER_12_389
*501 FILLER_12_401
*502 FILLER_12_41
*503 FILLER_12_53
*504 FILLER_12_65
*505 FILLER_12_77
*506 FILLER_12_83
*507 FILLER_12_85
*508 FILLER_12_97
*509 FILLER_13_105
*510 FILLER_13_111
*511 FILLER_13_113
*512 FILLER_13_125
*513 FILLER_13_137
*514 FILLER_13_149
*515 FILLER_13_15
*516 FILLER_13_161
*517 FILLER_13_167
*518 FILLER_13_169
*519 FILLER_13_181
*520 FILLER_13_193
*521 FILLER_13_205
*522 FILLER_13_217
*523 FILLER_13_223
*524 FILLER_13_225
*525 FILLER_13_237
*526 FILLER_13_249
*527 FILLER_13_261
*528 FILLER_13_27
*529 FILLER_13_273
*530 FILLER_13_279
*531 FILLER_13_281
*532 FILLER_13_293
*533 FILLER_13_3
*534 FILLER_13_305
*535 FILLER_13_317
*536 FILLER_13_329
*537 FILLER_13_335
*538 FILLER_13_337
*539 FILLER_13_349
*540 FILLER_13_361
*541 FILLER_13_373
*542 FILLER_13_385
*543 FILLER_13_39
*544 FILLER_13_391
*545 FILLER_13_393
*546 FILLER_13_405
*547 FILLER_13_51
*548 FILLER_13_55
*549 FILLER_13_57
*550 FILLER_13_69
*551 FILLER_13_81
*552 FILLER_13_93
*553 FILLER_14_109
*554 FILLER_14_121
*555 FILLER_14_133
*556 FILLER_14_139
*557 FILLER_14_141
*558 FILLER_14_15
*559 FILLER_14_153
*560 FILLER_14_165
*561 FILLER_14_177
*562 FILLER_14_189
*563 FILLER_14_195
*564 FILLER_14_197
*565 FILLER_14_209
*566 FILLER_14_221
*567 FILLER_14_233
*568 FILLER_14_245
*569 FILLER_14_251
*570 FILLER_14_253
*571 FILLER_14_265
*572 FILLER_14_27
*573 FILLER_14_277
*574 FILLER_14_289
*575 FILLER_14_29
*576 FILLER_14_3
*577 FILLER_14_301
*578 FILLER_14_307
*579 FILLER_14_309
*580 FILLER_14_321
*581 FILLER_14_333
*582 FILLER_14_345
*583 FILLER_14_357
*584 FILLER_14_363
*585 FILLER_14_365
*586 FILLER_14_377
*587 FILLER_14_389
*588 FILLER_14_401
*589 FILLER_14_41
*590 FILLER_14_53
*591 FILLER_14_65
*592 FILLER_14_77
*593 FILLER_14_83
*594 FILLER_14_85
*595 FILLER_14_97
*596 FILLER_15_105
*597 FILLER_15_111
*598 FILLER_15_113
*599 FILLER_15_125
*600 FILLER_15_137
*601 FILLER_15_149
*602 FILLER_15_15
*603 FILLER_15_161
*604 FILLER_15_167
*605 FILLER_15_169
*606 FILLER_15_191
*607 FILLER_15_203
*608 FILLER_15_215
*609 FILLER_15_223
*610 FILLER_15_225
*611 FILLER_15_237
*612 FILLER_15_249
*613 FILLER_15_261
*614 FILLER_15_27
*615 FILLER_15_273
*616 FILLER_15_279
*617 FILLER_15_281
*618 FILLER_15_293
*619 FILLER_15_3
*620 FILLER_15_305
*621 FILLER_15_317
*622 FILLER_15_329
*623 FILLER_15_335
*624 FILLER_15_337
*625 FILLER_15_349
*626 FILLER_15_361
*627 FILLER_15_373
*628 FILLER_15_385
*629 FILLER_15_39
*630 FILLER_15_391
*631 FILLER_15_393
*632 FILLER_15_405
*633 FILLER_15_51
*634 FILLER_15_55
*635 FILLER_15_57
*636 FILLER_15_69
*637 FILLER_15_81
*638 FILLER_15_93
*639 FILLER_16_109
*640 FILLER_16_121
*641 FILLER_16_133
*642 FILLER_16_139
*643 FILLER_16_141
*644 FILLER_16_15
*645 FILLER_16_153
*646 FILLER_16_165
*647 FILLER_16_177
*648 FILLER_16_189
*649 FILLER_16_195
*650 FILLER_16_197
*651 FILLER_16_234
*652 FILLER_16_246
*653 FILLER_16_253
*654 FILLER_16_265
*655 FILLER_16_27
*656 FILLER_16_277
*657 FILLER_16_285
*658 FILLER_16_29
*659 FILLER_16_291
*660 FILLER_16_299
*661 FILLER_16_3
*662 FILLER_16_304
*663 FILLER_16_309
*664 FILLER_16_321
*665 FILLER_16_333
*666 FILLER_16_345
*667 FILLER_16_357
*668 FILLER_16_363
*669 FILLER_16_365
*670 FILLER_16_377
*671 FILLER_16_389
*672 FILLER_16_401
*673 FILLER_16_41
*674 FILLER_16_53
*675 FILLER_16_65
*676 FILLER_16_77
*677 FILLER_16_83
*678 FILLER_16_85
*679 FILLER_16_97
*680 FILLER_17_105
*681 FILLER_17_111
*682 FILLER_17_113
*683 FILLER_17_125
*684 FILLER_17_137
*685 FILLER_17_149
*686 FILLER_17_15
*687 FILLER_17_161
*688 FILLER_17_167
*689 FILLER_17_169
*690 FILLER_17_181
*691 FILLER_17_193
*692 FILLER_17_205
*693 FILLER_17_217
*694 FILLER_17_223
*695 FILLER_17_225
*696 FILLER_17_237
*697 FILLER_17_249
*698 FILLER_17_261
*699 FILLER_17_27
*700 FILLER_17_273
*701 FILLER_17_279
*702 FILLER_17_281
*703 FILLER_17_293
*704 FILLER_17_3
*705 FILLER_17_305
*706 FILLER_17_317
*707 FILLER_17_329
*708 FILLER_17_335
*709 FILLER_17_337
*710 FILLER_17_349
*711 FILLER_17_361
*712 FILLER_17_373
*713 FILLER_17_385
*714 FILLER_17_39
*715 FILLER_17_391
*716 FILLER_17_393
*717 FILLER_17_51
*718 FILLER_17_55
*719 FILLER_17_57
*720 FILLER_17_69
*721 FILLER_17_81
*722 FILLER_17_93
*723 FILLER_18_109
*724 FILLER_18_121
*725 FILLER_18_141
*726 FILLER_18_15
*727 FILLER_18_153
*728 FILLER_18_165
*729 FILLER_18_177
*730 FILLER_18_189
*731 FILLER_18_195
*732 FILLER_18_197
*733 FILLER_18_209
*734 FILLER_18_221
*735 FILLER_18_233
*736 FILLER_18_245
*737 FILLER_18_251
*738 FILLER_18_253
*739 FILLER_18_265
*740 FILLER_18_27
*741 FILLER_18_277
*742 FILLER_18_289
*743 FILLER_18_29
*744 FILLER_18_3
*745 FILLER_18_301
*746 FILLER_18_307
*747 FILLER_18_309
*748 FILLER_18_321
*749 FILLER_18_333
*750 FILLER_18_345
*751 FILLER_18_357
*752 FILLER_18_363
*753 FILLER_18_365
*754 FILLER_18_377
*755 FILLER_18_389
*756 FILLER_18_401
*757 FILLER_18_41
*758 FILLER_18_53
*759 FILLER_18_65
*760 FILLER_18_77
*761 FILLER_18_83
*762 FILLER_18_85
*763 FILLER_18_97
*764 FILLER_19_105
*765 FILLER_19_111
*766 FILLER_19_140
*767 FILLER_19_144
*768 FILLER_19_15
*769 FILLER_19_152
*770 FILLER_19_164
*771 FILLER_19_169
*772 FILLER_19_181
*773 FILLER_19_193
*774 FILLER_19_205
*775 FILLER_19_217
*776 FILLER_19_223
*777 FILLER_19_225
*778 FILLER_19_241
*779 FILLER_19_253
*780 FILLER_19_265
*781 FILLER_19_27
*782 FILLER_19_277
*783 FILLER_19_281
*784 FILLER_19_293
*785 FILLER_19_3
*786 FILLER_19_305
*787 FILLER_19_317
*788 FILLER_19_329
*789 FILLER_19_335
*790 FILLER_19_337
*791 FILLER_19_349
*792 FILLER_19_361
*793 FILLER_19_373
*794 FILLER_19_385
*795 FILLER_19_39
*796 FILLER_19_391
*797 FILLER_19_393
*798 FILLER_19_405
*799 FILLER_19_51
*800 FILLER_19_55
*801 FILLER_19_57
*802 FILLER_19_69
*803 FILLER_19_81
*804 FILLER_19_93
*805 FILLER_1_105
*806 FILLER_1_111
*807 FILLER_1_113
*808 FILLER_1_125
*809 FILLER_1_137
*810 FILLER_1_149
*811 FILLER_1_15
*812 FILLER_1_161
*813 FILLER_1_167
*814 FILLER_1_169
*815 FILLER_1_181
*816 FILLER_1_193
*817 FILLER_1_205
*818 FILLER_1_217
*819 FILLER_1_223
*820 FILLER_1_225
*821 FILLER_1_237
*822 FILLER_1_249
*823 FILLER_1_261
*824 FILLER_1_27
*825 FILLER_1_273
*826 FILLER_1_279
*827 FILLER_1_281
*828 FILLER_1_293
*829 FILLER_1_3
*830 FILLER_1_305
*831 FILLER_1_317
*832 FILLER_1_329
*833 FILLER_1_335
*834 FILLER_1_337
*835 FILLER_1_349
*836 FILLER_1_361
*837 FILLER_1_373
*838 FILLER_1_385
*839 FILLER_1_39
*840 FILLER_1_391
*841 FILLER_1_393
*842 FILLER_1_405
*843 FILLER_1_51
*844 FILLER_1_55
*845 FILLER_1_57
*846 FILLER_1_69
*847 FILLER_1_81
*848 FILLER_1_93
*849 FILLER_20_109
*850 FILLER_20_136
*851 FILLER_20_148
*852 FILLER_20_15
*853 FILLER_20_159
*854 FILLER_20_171
*855 FILLER_20_193
*856 FILLER_20_197
*857 FILLER_20_209
*858 FILLER_20_221
*859 FILLER_20_233
*860 FILLER_20_241
*861 FILLER_20_251
*862 FILLER_20_253
*863 FILLER_20_265
*864 FILLER_20_27
*865 FILLER_20_284
*866 FILLER_20_29
*867 FILLER_20_296
*868 FILLER_20_3
*869 FILLER_20_309
*870 FILLER_20_321
*871 FILLER_20_333
*872 FILLER_20_345
*873 FILLER_20_357
*874 FILLER_20_363
*875 FILLER_20_365
*876 FILLER_20_377
*877 FILLER_20_389
*878 FILLER_20_401
*879 FILLER_20_41
*880 FILLER_20_53
*881 FILLER_20_65
*882 FILLER_20_77
*883 FILLER_20_83
*884 FILLER_20_85
*885 FILLER_20_97
*886 FILLER_21_105
*887 FILLER_21_110
*888 FILLER_21_113
*889 FILLER_21_139
*890 FILLER_21_149
*891 FILLER_21_15
*892 FILLER_21_161
*893 FILLER_21_167
*894 FILLER_21_169
*895 FILLER_21_175
*896 FILLER_21_189
*897 FILLER_21_201
*898 FILLER_21_213
*899 FILLER_21_221
*900 FILLER_21_225
*901 FILLER_21_233
*902 FILLER_21_255
*903 FILLER_21_267
*904 FILLER_21_27
*905 FILLER_21_279
*906 FILLER_21_299
*907 FILLER_21_3
*908 FILLER_21_311
*909 FILLER_21_323
*910 FILLER_21_335
*911 FILLER_21_337
*912 FILLER_21_349
*913 FILLER_21_361
*914 FILLER_21_373
*915 FILLER_21_385
*916 FILLER_21_39
*917 FILLER_21_391
*918 FILLER_21_393
*919 FILLER_21_51
*920 FILLER_21_55
*921 FILLER_21_57
*922 FILLER_21_69
*923 FILLER_21_81
*924 FILLER_21_93
*925 FILLER_22_117
*926 FILLER_22_146
*927 FILLER_22_15
*928 FILLER_22_158
*929 FILLER_22_166
*930 FILLER_22_177
*931 FILLER_22_189
*932 FILLER_22_195
*933 FILLER_22_197
*934 FILLER_22_201
*935 FILLER_22_205
*936 FILLER_22_217
*937 FILLER_22_229
*938 FILLER_22_241
*939 FILLER_22_246
*940 FILLER_22_253
*941 FILLER_22_265
*942 FILLER_22_27
*943 FILLER_22_277
*944 FILLER_22_29
*945 FILLER_22_292
*946 FILLER_22_3
*947 FILLER_22_304
*948 FILLER_22_309
*949 FILLER_22_321
*950 FILLER_22_333
*951 FILLER_22_345
*952 FILLER_22_357
*953 FILLER_22_363
*954 FILLER_22_365
*955 FILLER_22_377
*956 FILLER_22_389
*957 FILLER_22_401
*958 FILLER_22_41
*959 FILLER_22_53
*960 FILLER_22_65
*961 FILLER_22_77
*962 FILLER_22_83
*963 FILLER_22_85
*964 FILLER_22_97
*965 FILLER_23_105
*966 FILLER_23_111
*967 FILLER_23_113
*968 FILLER_23_125
*969 FILLER_23_133
*970 FILLER_23_137
*971 FILLER_23_149
*972 FILLER_23_15
*973 FILLER_23_161
*974 FILLER_23_167
*975 FILLER_23_169
*976 FILLER_23_176
*977 FILLER_23_196
*978 FILLER_23_208
*979 FILLER_23_220
*980 FILLER_23_225
*981 FILLER_23_237
*982 FILLER_23_249
*983 FILLER_23_261
*984 FILLER_23_27
*985 FILLER_23_273
*986 FILLER_23_279
*987 FILLER_23_281
*988 FILLER_23_286
*989 FILLER_23_293
*990 FILLER_23_3
*991 FILLER_23_305
*992 FILLER_23_317
*993 FILLER_23_329
*994 FILLER_23_335
*995 FILLER_23_337
*996 FILLER_23_349
*997 FILLER_23_361
*998 FILLER_23_373
*999 FILLER_23_385
*1000 FILLER_23_39
*1001 FILLER_23_391
*1002 FILLER_23_393
*1003 FILLER_23_405
*1004 FILLER_23_51
*1005 FILLER_23_55
*1006 FILLER_23_57
*1007 FILLER_23_69
*1008 FILLER_23_81
*1009 FILLER_23_93
*1010 FILLER_24_109
*1011 FILLER_24_121
*1012 FILLER_24_133
*1013 FILLER_24_139
*1014 FILLER_24_141
*1015 FILLER_24_15
*1016 FILLER_24_153
*1017 FILLER_24_165
*1018 FILLER_24_177
*1019 FILLER_24_189
*1020 FILLER_24_195
*1021 FILLER_24_197
*1022 FILLER_24_209
*1023 FILLER_24_221
*1024 FILLER_24_225
*1025 FILLER_24_239
*1026 FILLER_24_251
*1027 FILLER_24_253
*1028 FILLER_24_265
*1029 FILLER_24_27
*1030 FILLER_24_277
*1031 FILLER_24_289
*1032 FILLER_24_29
*1033 FILLER_24_3
*1034 FILLER_24_301
*1035 FILLER_24_307
*1036 FILLER_24_309
*1037 FILLER_24_321
*1038 FILLER_24_333
*1039 FILLER_24_345
*1040 FILLER_24_357
*1041 FILLER_24_363
*1042 FILLER_24_365
*1043 FILLER_24_377
*1044 FILLER_24_389
*1045 FILLER_24_401
*1046 FILLER_24_41
*1047 FILLER_24_53
*1048 FILLER_24_65
*1049 FILLER_24_77
*1050 FILLER_24_83
*1051 FILLER_24_85
*1052 FILLER_24_97
*1053 FILLER_25_105
*1054 FILLER_25_111
*1055 FILLER_25_113
*1056 FILLER_25_119
*1057 FILLER_25_125
*1058 FILLER_25_137
*1059 FILLER_25_149
*1060 FILLER_25_15
*1061 FILLER_25_161
*1062 FILLER_25_167
*1063 FILLER_25_169
*1064 FILLER_25_181
*1065 FILLER_25_193
*1066 FILLER_25_205
*1067 FILLER_25_217
*1068 FILLER_25_223
*1069 FILLER_25_225
*1070 FILLER_25_231
*1071 FILLER_25_246
*1072 FILLER_25_258
*1073 FILLER_25_27
*1074 FILLER_25_270
*1075 FILLER_25_278
*1076 FILLER_25_281
*1077 FILLER_25_293
*1078 FILLER_25_3
*1079 FILLER_25_305
*1080 FILLER_25_317
*1081 FILLER_25_329
*1082 FILLER_25_335
*1083 FILLER_25_337
*1084 FILLER_25_349
*1085 FILLER_25_361
*1086 FILLER_25_373
*1087 FILLER_25_385
*1088 FILLER_25_39
*1089 FILLER_25_391
*1090 FILLER_25_393
*1091 FILLER_25_397
*1092 FILLER_25_51
*1093 FILLER_25_55
*1094 FILLER_25_57
*1095 FILLER_25_69
*1096 FILLER_25_81
*1097 FILLER_25_93
*1098 FILLER_26_109
*1099 FILLER_26_139
*1100 FILLER_26_145
*1101 FILLER_26_15
*1102 FILLER_26_157
*1103 FILLER_26_169
*1104 FILLER_26_192
*1105 FILLER_26_197
*1106 FILLER_26_207
*1107 FILLER_26_219
*1108 FILLER_26_231
*1109 FILLER_26_235
*1110 FILLER_26_249
*1111 FILLER_26_253
*1112 FILLER_26_265
*1113 FILLER_26_27
*1114 FILLER_26_277
*1115 FILLER_26_289
*1116 FILLER_26_29
*1117 FILLER_26_3
*1118 FILLER_26_301
*1119 FILLER_26_307
*1120 FILLER_26_309
*1121 FILLER_26_321
*1122 FILLER_26_333
*1123 FILLER_26_345
*1124 FILLER_26_357
*1125 FILLER_26_363
*1126 FILLER_26_365
*1127 FILLER_26_377
*1128 FILLER_26_389
*1129 FILLER_26_401
*1130 FILLER_26_41
*1131 FILLER_26_53
*1132 FILLER_26_65
*1133 FILLER_26_77
*1134 FILLER_26_83
*1135 FILLER_26_85
*1136 FILLER_26_97
*1137 FILLER_27_105
*1138 FILLER_27_111
*1139 FILLER_27_113
*1140 FILLER_27_125
*1141 FILLER_27_137
*1142 FILLER_27_145
*1143 FILLER_27_15
*1144 FILLER_27_157
*1145 FILLER_27_165
*1146 FILLER_27_169
*1147 FILLER_27_181
*1148 FILLER_27_193
*1149 FILLER_27_205
*1150 FILLER_27_217
*1151 FILLER_27_223
*1152 FILLER_27_238
*1153 FILLER_27_250
*1154 FILLER_27_262
*1155 FILLER_27_27
*1156 FILLER_27_274
*1157 FILLER_27_288
*1158 FILLER_27_3
*1159 FILLER_27_300
*1160 FILLER_27_312
*1161 FILLER_27_324
*1162 FILLER_27_337
*1163 FILLER_27_349
*1164 FILLER_27_361
*1165 FILLER_27_373
*1166 FILLER_27_385
*1167 FILLER_27_39
*1168 FILLER_27_391
*1169 FILLER_27_393
*1170 FILLER_27_405
*1171 FILLER_27_51
*1172 FILLER_27_55
*1173 FILLER_27_57
*1174 FILLER_27_69
*1175 FILLER_27_81
*1176 FILLER_27_93
*1177 FILLER_28_109
*1178 FILLER_28_121
*1179 FILLER_28_148
*1180 FILLER_28_15
*1181 FILLER_28_160
*1182 FILLER_28_172
*1183 FILLER_28_183
*1184 FILLER_28_195
*1185 FILLER_28_197
*1186 FILLER_28_209
*1187 FILLER_28_213
*1188 FILLER_28_217
*1189 FILLER_28_229
*1190 FILLER_28_241
*1191 FILLER_28_249
*1192 FILLER_28_253
*1193 FILLER_28_257
*1194 FILLER_28_27
*1195 FILLER_28_274
*1196 FILLER_28_29
*1197 FILLER_28_294
*1198 FILLER_28_3
*1199 FILLER_28_306
*1200 FILLER_28_309
*1201 FILLER_28_321
*1202 FILLER_28_333
*1203 FILLER_28_345
*1204 FILLER_28_357
*1205 FILLER_28_363
*1206 FILLER_28_365
*1207 FILLER_28_377
*1208 FILLER_28_389
*1209 FILLER_28_401
*1210 FILLER_28_41
*1211 FILLER_28_53
*1212 FILLER_28_65
*1213 FILLER_28_77
*1214 FILLER_28_83
*1215 FILLER_28_85
*1216 FILLER_28_97
*1217 FILLER_29_105
*1218 FILLER_29_111
*1219 FILLER_29_113
*1220 FILLER_29_125
*1221 FILLER_29_137
*1222 FILLER_29_149
*1223 FILLER_29_15
*1224 FILLER_29_161
*1225 FILLER_29_167
*1226 FILLER_29_169
*1227 FILLER_29_181
*1228 FILLER_29_193
*1229 FILLER_29_205
*1230 FILLER_29_217
*1231 FILLER_29_223
*1232 FILLER_29_225
*1233 FILLER_29_237
*1234 FILLER_29_249
*1235 FILLER_29_257
*1236 FILLER_29_27
*1237 FILLER_29_3
*1238 FILLER_29_308
*1239 FILLER_29_320
*1240 FILLER_29_332
*1241 FILLER_29_337
*1242 FILLER_29_349
*1243 FILLER_29_361
*1244 FILLER_29_373
*1245 FILLER_29_385
*1246 FILLER_29_39
*1247 FILLER_29_391
*1248 FILLER_29_393
*1249 FILLER_29_405
*1250 FILLER_29_51
*1251 FILLER_29_55
*1252 FILLER_29_57
*1253 FILLER_29_69
*1254 FILLER_29_81
*1255 FILLER_29_93
*1256 FILLER_2_109
*1257 FILLER_2_121
*1258 FILLER_2_133
*1259 FILLER_2_139
*1260 FILLER_2_141
*1261 FILLER_2_15
*1262 FILLER_2_159
*1263 FILLER_2_169
*1264 FILLER_2_181
*1265 FILLER_2_186
*1266 FILLER_2_194
*1267 FILLER_2_197
*1268 FILLER_2_209
*1269 FILLER_2_221
*1270 FILLER_2_233
*1271 FILLER_2_245
*1272 FILLER_2_251
*1273 FILLER_2_253
*1274 FILLER_2_265
*1275 FILLER_2_27
*1276 FILLER_2_277
*1277 FILLER_2_289
*1278 FILLER_2_29
*1279 FILLER_2_3
*1280 FILLER_2_301
*1281 FILLER_2_307
*1282 FILLER_2_309
*1283 FILLER_2_321
*1284 FILLER_2_333
*1285 FILLER_2_345
*1286 FILLER_2_357
*1287 FILLER_2_363
*1288 FILLER_2_365
*1289 FILLER_2_377
*1290 FILLER_2_389
*1291 FILLER_2_401
*1292 FILLER_2_41
*1293 FILLER_2_53
*1294 FILLER_2_65
*1295 FILLER_2_77
*1296 FILLER_2_83
*1297 FILLER_2_85
*1298 FILLER_2_97
*1299 FILLER_30_109
*1300 FILLER_30_121
*1301 FILLER_30_133
*1302 FILLER_30_139
*1303 FILLER_30_141
*1304 FILLER_30_15
*1305 FILLER_30_153
*1306 FILLER_30_165
*1307 FILLER_30_177
*1308 FILLER_30_189
*1309 FILLER_30_195
*1310 FILLER_30_197
*1311 FILLER_30_209
*1312 FILLER_30_221
*1313 FILLER_30_241
*1314 FILLER_30_249
*1315 FILLER_30_253
*1316 FILLER_30_265
*1317 FILLER_30_27
*1318 FILLER_30_277
*1319 FILLER_30_289
*1320 FILLER_30_29
*1321 FILLER_30_3
*1322 FILLER_30_301
*1323 FILLER_30_307
*1324 FILLER_30_309
*1325 FILLER_30_321
*1326 FILLER_30_333
*1327 FILLER_30_345
*1328 FILLER_30_357
*1329 FILLER_30_363
*1330 FILLER_30_365
*1331 FILLER_30_377
*1332 FILLER_30_389
*1333 FILLER_30_41
*1334 FILLER_30_53
*1335 FILLER_30_65
*1336 FILLER_30_77
*1337 FILLER_30_83
*1338 FILLER_30_85
*1339 FILLER_30_97
*1340 FILLER_31_105
*1341 FILLER_31_111
*1342 FILLER_31_113
*1343 FILLER_31_125
*1344 FILLER_31_137
*1345 FILLER_31_149
*1346 FILLER_31_15
*1347 FILLER_31_161
*1348 FILLER_31_167
*1349 FILLER_31_169
*1350 FILLER_31_181
*1351 FILLER_31_193
*1352 FILLER_31_205
*1353 FILLER_31_220
*1354 FILLER_31_225
*1355 FILLER_31_237
*1356 FILLER_31_241
*1357 FILLER_31_255
*1358 FILLER_31_267
*1359 FILLER_31_27
*1360 FILLER_31_279
*1361 FILLER_31_281
*1362 FILLER_31_293
*1363 FILLER_31_3
*1364 FILLER_31_305
*1365 FILLER_31_317
*1366 FILLER_31_329
*1367 FILLER_31_335
*1368 FILLER_31_337
*1369 FILLER_31_349
*1370 FILLER_31_361
*1371 FILLER_31_373
*1372 FILLER_31_385
*1373 FILLER_31_39
*1374 FILLER_31_391
*1375 FILLER_31_393
*1376 FILLER_31_397
*1377 FILLER_31_51
*1378 FILLER_31_55
*1379 FILLER_31_57
*1380 FILLER_31_69
*1381 FILLER_31_81
*1382 FILLER_31_93
*1383 FILLER_32_109
*1384 FILLER_32_121
*1385 FILLER_32_141
*1386 FILLER_32_15
*1387 FILLER_32_152
*1388 FILLER_32_164
*1389 FILLER_32_179
*1390 FILLER_32_193
*1391 FILLER_32_197
*1392 FILLER_32_209
*1393 FILLER_32_221
*1394 FILLER_32_233
*1395 FILLER_32_241
*1396 FILLER_32_249
*1397 FILLER_32_253
*1398 FILLER_32_265
*1399 FILLER_32_27
*1400 FILLER_32_277
*1401 FILLER_32_289
*1402 FILLER_32_29
*1403 FILLER_32_3
*1404 FILLER_32_301
*1405 FILLER_32_307
*1406 FILLER_32_309
*1407 FILLER_32_321
*1408 FILLER_32_333
*1409 FILLER_32_345
*1410 FILLER_32_357
*1411 FILLER_32_363
*1412 FILLER_32_365
*1413 FILLER_32_377
*1414 FILLER_32_389
*1415 FILLER_32_401
*1416 FILLER_32_41
*1417 FILLER_32_53
*1418 FILLER_32_65
*1419 FILLER_32_77
*1420 FILLER_32_83
*1421 FILLER_32_85
*1422 FILLER_32_97
*1423 FILLER_33_108
*1424 FILLER_33_137
*1425 FILLER_33_149
*1426 FILLER_33_161
*1427 FILLER_33_167
*1428 FILLER_33_169
*1429 FILLER_33_180
*1430 FILLER_33_191
*1431 FILLER_33_203
*1432 FILLER_33_215
*1433 FILLER_33_219
*1434 FILLER_33_223
*1435 FILLER_33_225
*1436 FILLER_33_237
*1437 FILLER_33_249
*1438 FILLER_33_261
*1439 FILLER_33_273
*1440 FILLER_33_279
*1441 FILLER_33_281
*1442 FILLER_33_29
*1443 FILLER_33_293
*1444 FILLER_33_3
*1445 FILLER_33_305
*1446 FILLER_33_317
*1447 FILLER_33_329
*1448 FILLER_33_335
*1449 FILLER_33_337
*1450 FILLER_33_349
*1451 FILLER_33_361
*1452 FILLER_33_373
*1453 FILLER_33_385
*1454 FILLER_33_391
*1455 FILLER_33_393
*1456 FILLER_33_405
*1457 FILLER_33_47
*1458 FILLER_33_55
*1459 FILLER_33_57
*1460 FILLER_33_69
*1461 FILLER_33_73
*1462 FILLER_33_84
*1463 FILLER_33_96
*1464 FILLER_34_104
*1465 FILLER_34_11
*1466 FILLER_34_110
*1467 FILLER_34_125
*1468 FILLER_34_139
*1469 FILLER_34_141
*1470 FILLER_34_153
*1471 FILLER_34_165
*1472 FILLER_34_177
*1473 FILLER_34_197
*1474 FILLER_34_209
*1475 FILLER_34_221
*1476 FILLER_34_234
*1477 FILLER_34_24
*1478 FILLER_34_246
*1479 FILLER_34_253
*1480 FILLER_34_265
*1481 FILLER_34_277
*1482 FILLER_34_289
*1483 FILLER_34_29
*1484 FILLER_34_3
*1485 FILLER_34_301
*1486 FILLER_34_307
*1487 FILLER_34_309
*1488 FILLER_34_321
*1489 FILLER_34_333
*1490 FILLER_34_345
*1491 FILLER_34_357
*1492 FILLER_34_363
*1493 FILLER_34_365
*1494 FILLER_34_377
*1495 FILLER_34_389
*1496 FILLER_34_401
*1497 FILLER_34_58
*1498 FILLER_34_70
*1499 FILLER_34_74
*1500 FILLER_34_82
*1501 FILLER_34_92
*1502 FILLER_35_109
*1503 FILLER_35_113
*1504 FILLER_35_121
*1505 FILLER_35_130
*1506 FILLER_35_142
*1507 FILLER_35_154
*1508 FILLER_35_166
*1509 FILLER_35_169
*1510 FILLER_35_17
*1511 FILLER_35_175
*1512 FILLER_35_184
*1513 FILLER_35_196
*1514 FILLER_35_208
*1515 FILLER_35_221
*1516 FILLER_35_225
*1517 FILLER_35_237
*1518 FILLER_35_249
*1519 FILLER_35_261
*1520 FILLER_35_273
*1521 FILLER_35_279
*1522 FILLER_35_281
*1523 FILLER_35_293
*1524 FILLER_35_30
*1525 FILLER_35_305
*1526 FILLER_35_317
*1527 FILLER_35_329
*1528 FILLER_35_335
*1529 FILLER_35_337
*1530 FILLER_35_349
*1531 FILLER_35_361
*1532 FILLER_35_373
*1533 FILLER_35_385
*1534 FILLER_35_39
*1535 FILLER_35_391
*1536 FILLER_35_393
*1537 FILLER_35_405
*1538 FILLER_35_55
*1539 FILLER_35_57
*1540 FILLER_35_65
*1541 FILLER_35_75
*1542 FILLER_35_85
*1543 FILLER_35_9
*1544 FILLER_35_97
*1545 FILLER_36_109
*1546 FILLER_36_121
*1547 FILLER_36_133
*1548 FILLER_36_139
*1549 FILLER_36_141
*1550 FILLER_36_153
*1551 FILLER_36_165
*1552 FILLER_36_177
*1553 FILLER_36_189
*1554 FILLER_36_19
*1555 FILLER_36_195
*1556 FILLER_36_197
*1557 FILLER_36_209
*1558 FILLER_36_215
*1559 FILLER_36_223
*1560 FILLER_36_245
*1561 FILLER_36_251
*1562 FILLER_36_253
*1563 FILLER_36_265
*1564 FILLER_36_277
*1565 FILLER_36_289
*1566 FILLER_36_301
*1567 FILLER_36_307
*1568 FILLER_36_309
*1569 FILLER_36_321
*1570 FILLER_36_333
*1571 FILLER_36_345
*1572 FILLER_36_357
*1573 FILLER_36_363
*1574 FILLER_36_365
*1575 FILLER_36_377
*1576 FILLER_36_38
*1577 FILLER_36_389
*1578 FILLER_36_401
*1579 FILLER_36_50
*1580 FILLER_36_62
*1581 FILLER_36_7
*1582 FILLER_36_74
*1583 FILLER_36_82
*1584 FILLER_36_85
*1585 FILLER_36_97
*1586 FILLER_37_108
*1587 FILLER_37_113
*1588 FILLER_37_126
*1589 FILLER_37_138
*1590 FILLER_37_15
*1591 FILLER_37_150
*1592 FILLER_37_162
*1593 FILLER_37_169
*1594 FILLER_37_181
*1595 FILLER_37_189
*1596 FILLER_37_196
*1597 FILLER_37_208
*1598 FILLER_37_220
*1599 FILLER_37_225
*1600 FILLER_37_23
*1601 FILLER_37_237
*1602 FILLER_37_252
*1603 FILLER_37_264
*1604 FILLER_37_276
*1605 FILLER_37_281
*1606 FILLER_37_293
*1607 FILLER_37_3
*1608 FILLER_37_305
*1609 FILLER_37_317
*1610 FILLER_37_32
*1611 FILLER_37_329
*1612 FILLER_37_335
*1613 FILLER_37_337
*1614 FILLER_37_349
*1615 FILLER_37_361
*1616 FILLER_37_373
*1617 FILLER_37_385
*1618 FILLER_37_391
*1619 FILLER_37_393
*1620 FILLER_37_405
*1621 FILLER_37_44
*1622 FILLER_37_57
*1623 FILLER_37_69
*1624 FILLER_37_81
*1625 FILLER_37_96
*1626 FILLER_38_109
*1627 FILLER_38_120
*1628 FILLER_38_130
*1629 FILLER_38_138
*1630 FILLER_38_141
*1631 FILLER_38_145
*1632 FILLER_38_15
*1633 FILLER_38_154
*1634 FILLER_38_166
*1635 FILLER_38_178
*1636 FILLER_38_186
*1637 FILLER_38_194
*1638 FILLER_38_197
*1639 FILLER_38_209
*1640 FILLER_38_221
*1641 FILLER_38_233
*1642 FILLER_38_245
*1643 FILLER_38_251
*1644 FILLER_38_253
*1645 FILLER_38_265
*1646 FILLER_38_27
*1647 FILLER_38_277
*1648 FILLER_38_289
*1649 FILLER_38_29
*1650 FILLER_38_3
*1651 FILLER_38_301
*1652 FILLER_38_307
*1653 FILLER_38_309
*1654 FILLER_38_321
*1655 FILLER_38_333
*1656 FILLER_38_345
*1657 FILLER_38_357
*1658 FILLER_38_363
*1659 FILLER_38_365
*1660 FILLER_38_377
*1661 FILLER_38_389
*1662 FILLER_38_401
*1663 FILLER_38_41
*1664 FILLER_38_53
*1665 FILLER_38_65
*1666 FILLER_38_75
*1667 FILLER_38_83
*1668 FILLER_38_85
*1669 FILLER_38_97
*1670 FILLER_39_104
*1671 FILLER_39_113
*1672 FILLER_39_125
*1673 FILLER_39_137
*1674 FILLER_39_146
*1675 FILLER_39_156
*1676 FILLER_39_169
*1677 FILLER_39_181
*1678 FILLER_39_185
*1679 FILLER_39_195
*1680 FILLER_39_207
*1681 FILLER_39_219
*1682 FILLER_39_223
*1683 FILLER_39_225
*1684 FILLER_39_237
*1685 FILLER_39_24
*1686 FILLER_39_241
*1687 FILLER_39_249
*1688 FILLER_39_268
*1689 FILLER_39_281
*1690 FILLER_39_293
*1691 FILLER_39_3
*1692 FILLER_39_305
*1693 FILLER_39_317
*1694 FILLER_39_329
*1695 FILLER_39_335
*1696 FILLER_39_337
*1697 FILLER_39_349
*1698 FILLER_39_36
*1699 FILLER_39_361
*1700 FILLER_39_373
*1701 FILLER_39_385
*1702 FILLER_39_391